* SPICE3 file created from transmitter.ext - technology: sky130A

.subckt sky130_fd_pr__nfet_01v8_HR8DH9 a_262_n288# a_n328_n288# a_n501_n200# a_616_n288#
+ a_561_n200# a_144_n288# a_n839_n374# a_n383_n200# a_498_n288# a_n737_n200# a_443_n200#
+ a_n265_n200# a_n619_n200# a_26_n288# a_325_n200# a_n682_n288# a_679_n200# a_n147_n200#
+ a_207_n200# a_n210_n288# a_n564_n288# a_n29_n200# a_380_n288# a_n92_n288# a_89_n200#
+ a_n446_n288#
X0 a_n29_n200# a_n92_n288# a_n147_n200# a_n839_n374# sky130_fd_pr__nfet_01v8 ad=5.8e+11p pd=4.58e+06u as=5.8e+11p ps=4.58e+06u w=2e+06u l=300000u
X1 a_n619_n200# a_n682_n288# a_n737_n200# a_n839_n374# sky130_fd_pr__nfet_01v8 ad=5.8e+11p pd=4.58e+06u as=5.8e+11p ps=4.58e+06u w=2e+06u l=300000u
X2 a_325_n200# a_262_n288# a_207_n200# a_n839_n374# sky130_fd_pr__nfet_01v8 ad=5.8e+11p pd=4.58e+06u as=5.8e+11p ps=4.58e+06u w=2e+06u l=300000u
X3 a_561_n200# a_498_n288# a_443_n200# a_n839_n374# sky130_fd_pr__nfet_01v8 ad=5.8e+11p pd=4.58e+06u as=5.8e+11p ps=4.58e+06u w=2e+06u l=300000u
X4 a_n265_n200# a_n328_n288# a_n383_n200# a_n839_n374# sky130_fd_pr__nfet_01v8 ad=5.8e+11p pd=4.58e+06u as=5.8e+11p ps=4.58e+06u w=2e+06u l=300000u
X5 a_89_n200# a_26_n288# a_n29_n200# a_n839_n374# sky130_fd_pr__nfet_01v8 ad=5.8e+11p pd=4.58e+06u as=0p ps=0u w=2e+06u l=300000u
X6 a_207_n200# a_144_n288# a_89_n200# a_n839_n374# sky130_fd_pr__nfet_01v8 ad=0p pd=0u as=0p ps=0u w=2e+06u l=300000u
X7 a_n501_n200# a_n564_n288# a_n619_n200# a_n839_n374# sky130_fd_pr__nfet_01v8 ad=5.8e+11p pd=4.58e+06u as=0p ps=0u w=2e+06u l=300000u
X8 a_n147_n200# a_n210_n288# a_n265_n200# a_n839_n374# sky130_fd_pr__nfet_01v8 ad=0p pd=0u as=0p ps=0u w=2e+06u l=300000u
X9 a_679_n200# a_616_n288# a_561_n200# a_n839_n374# sky130_fd_pr__nfet_01v8 ad=5.8e+11p pd=4.58e+06u as=0p ps=0u w=2e+06u l=300000u
X10 a_443_n200# a_380_n288# a_325_n200# a_n839_n374# sky130_fd_pr__nfet_01v8 ad=0p pd=0u as=0p ps=0u w=2e+06u l=300000u
X11 a_n383_n200# a_n446_n288# a_n501_n200# a_n839_n374# sky130_fd_pr__nfet_01v8 ad=0p pd=0u as=0p ps=0u w=2e+06u l=300000u
.ends

.subckt sky130_fd_pr__nfet_01v8_XZXALN a_n129_727# a_n129_109# a_n369_21# a_n177_n1215#
+ a_n605_n1127# a_n465_n597# a_255_n509# a_n561_n1215# a_n707_n1301# a_495_n705# a_n273_639#
+ a_15_1149# a_399_21# a_n561_1149# a_447_727# a_n81_531# a_447_109# a_399_n1215#
+ a_n177_1149# a_351_n509# a_n417_n509# a_n177_n87# a_n321_727# a_n321_109# a_111_n597#
+ a_63_n1127# a_n273_531# a_n273_n597# a_n513_n509# a_n33_n1127# a_n129_n509# a_159_727#
+ a_159_109# a_303_n705# a_63_n509# a_n417_n1127# a_n129_n1127# a_n465_639# a_n513_n1127#
+ a_n225_n1127# a_n321_n1127# a_n369_n87# a_n225_n509# a_n465_n705# a_n513_727# a_n513_109#
+ a_n465_531# a_159_n1127# a_447_n1127# a_255_n1127# a_543_n1127# a_351_n1127# a_351_727#
+ a_351_109# a_n321_n509# a_n33_727# a_n33_109# a_399_1149# a_n81_n597# a_111_n705#
+ a_n561_n87# a_n225_727# a_n225_109# a_495_639# a_n273_n705# a_15_n1215# a_111_639#
+ a_n561_21# a_n177_21# a_n33_n509# a_495_n597# a_207_21# a_399_n87# a_543_727# a_543_109#
+ a_495_531# a_111_531# a_n605_n509# a_63_727# a_63_109# a_447_n509# a_15_n87# a_207_1149#
+ a_n605_727# a_15_21# a_n605_109# a_n417_727# a_n417_109# a_303_639# a_207_n1215#
+ a_n369_1149# a_255_727# a_255_109# a_543_n509# a_159_n509# a_n81_n705# a_207_n87#
+ a_303_n597# a_303_531# a_n81_639# a_n369_n1215#
X0 a_n129_n509# a_n177_n87# a_n225_n509# a_n707_n1301# sky130_fd_pr__nfet_01v8 ad=6.6e+11p pd=4.66e+06u as=6.6e+11p ps=4.66e+06u w=2e+06u l=150000u
X1 a_n321_n1127# a_n369_n1215# a_n417_n1127# a_n707_n1301# sky130_fd_pr__nfet_01v8 ad=6.6e+11p pd=4.66e+06u as=6.6e+11p ps=4.66e+06u w=2e+06u l=150000u
X2 a_n417_n509# a_n465_n597# a_n513_n509# a_n707_n1301# sky130_fd_pr__nfet_01v8 ad=6.6e+11p pd=4.66e+06u as=6.6e+11p ps=4.66e+06u w=2e+06u l=150000u
X3 a_n33_727# a_n81_639# a_n129_727# a_n707_n1301# sky130_fd_pr__nfet_01v8 ad=6.6e+11p pd=4.66e+06u as=6.6e+11p ps=4.66e+06u w=2e+06u l=150000u
X4 a_351_727# a_303_639# a_255_727# a_n707_n1301# sky130_fd_pr__nfet_01v8 ad=6.6e+11p pd=4.66e+06u as=6.6e+11p ps=4.66e+06u w=2e+06u l=150000u
X5 a_159_727# a_111_639# a_63_727# a_n707_n1301# sky130_fd_pr__nfet_01v8 ad=6.6e+11p pd=4.66e+06u as=6.6e+11p ps=4.66e+06u w=2e+06u l=150000u
X6 a_255_727# a_207_1149# a_159_727# a_n707_n1301# sky130_fd_pr__nfet_01v8 ad=0p pd=0u as=0p ps=0u w=2e+06u l=150000u
X7 a_447_727# a_399_1149# a_351_727# a_n707_n1301# sky130_fd_pr__nfet_01v8 ad=6.6e+11p pd=4.66e+06u as=0p ps=0u w=2e+06u l=150000u
X8 a_543_727# a_495_639# a_447_727# a_n707_n1301# sky130_fd_pr__nfet_01v8 ad=6.2e+11p pd=4.62e+06u as=0p ps=0u w=2e+06u l=150000u
X9 a_63_n1127# a_15_n1215# a_n33_n1127# a_n707_n1301# sky130_fd_pr__nfet_01v8 ad=6.6e+11p pd=4.66e+06u as=6.6e+11p ps=4.66e+06u w=2e+06u l=150000u
X10 a_159_n1127# a_111_n705# a_63_n1127# a_n707_n1301# sky130_fd_pr__nfet_01v8 ad=6.6e+11p pd=4.66e+06u as=0p ps=0u w=2e+06u l=150000u
X11 a_n33_109# a_n81_531# a_n129_109# a_n707_n1301# sky130_fd_pr__nfet_01v8 ad=6.6e+11p pd=4.66e+06u as=6.6e+11p ps=4.66e+06u w=2e+06u l=150000u
X12 a_n33_n509# a_n81_n597# a_n129_n509# a_n707_n1301# sky130_fd_pr__nfet_01v8 ad=6.6e+11p pd=4.66e+06u as=0p ps=0u w=2e+06u l=150000u
X13 a_351_n509# a_303_n597# a_255_n509# a_n707_n1301# sky130_fd_pr__nfet_01v8 ad=6.6e+11p pd=4.66e+06u as=6.6e+11p ps=4.66e+06u w=2e+06u l=150000u
X14 a_n321_727# a_n369_1149# a_n417_727# a_n707_n1301# sky130_fd_pr__nfet_01v8 ad=6.6e+11p pd=4.66e+06u as=6.6e+11p ps=4.66e+06u w=2e+06u l=150000u
X15 a_255_n1127# a_207_n1215# a_159_n1127# a_n707_n1301# sky130_fd_pr__nfet_01v8 ad=6.6e+11p pd=4.66e+06u as=0p ps=0u w=2e+06u l=150000u
X16 a_n513_727# a_n561_1149# a_n605_727# a_n707_n1301# sky130_fd_pr__nfet_01v8 ad=6.6e+11p pd=4.66e+06u as=6.2e+11p ps=4.62e+06u w=2e+06u l=150000u
X17 a_n417_727# a_n465_639# a_n513_727# a_n707_n1301# sky130_fd_pr__nfet_01v8 ad=0p pd=0u as=0p ps=0u w=2e+06u l=150000u
X18 a_n225_727# a_n273_639# a_n321_727# a_n707_n1301# sky130_fd_pr__nfet_01v8 ad=6.6e+11p pd=4.66e+06u as=0p ps=0u w=2e+06u l=150000u
X19 a_n129_727# a_n177_1149# a_n225_727# a_n707_n1301# sky130_fd_pr__nfet_01v8 ad=0p pd=0u as=0p ps=0u w=2e+06u l=150000u
X20 a_255_109# a_207_21# a_159_109# a_n707_n1301# sky130_fd_pr__nfet_01v8 ad=6.6e+11p pd=4.66e+06u as=6.6e+11p ps=4.66e+06u w=2e+06u l=150000u
X21 a_351_109# a_303_531# a_255_109# a_n707_n1301# sky130_fd_pr__nfet_01v8 ad=6.6e+11p pd=4.66e+06u as=0p ps=0u w=2e+06u l=150000u
X22 a_543_109# a_495_531# a_447_109# a_n707_n1301# sky130_fd_pr__nfet_01v8 ad=6.2e+11p pd=4.62e+06u as=6.6e+11p ps=4.66e+06u w=2e+06u l=150000u
X23 a_n417_n1127# a_n465_n705# a_n513_n1127# a_n707_n1301# sky130_fd_pr__nfet_01v8 ad=0p pd=0u as=6.6e+11p ps=4.66e+06u w=2e+06u l=150000u
X24 a_159_109# a_111_531# a_63_109# a_n707_n1301# sky130_fd_pr__nfet_01v8 ad=0p pd=0u as=6.6e+11p ps=4.66e+06u w=2e+06u l=150000u
X25 a_447_109# a_399_21# a_351_109# a_n707_n1301# sky130_fd_pr__nfet_01v8 ad=0p pd=0u as=0p ps=0u w=2e+06u l=150000u
X26 a_n513_n1127# a_n561_n1215# a_n605_n1127# a_n707_n1301# sky130_fd_pr__nfet_01v8 ad=0p pd=0u as=6.2e+11p ps=4.62e+06u w=2e+06u l=150000u
X27 a_351_n1127# a_303_n705# a_255_n1127# a_n707_n1301# sky130_fd_pr__nfet_01v8 ad=6.6e+11p pd=4.66e+06u as=0p ps=0u w=2e+06u l=150000u
X28 a_n513_109# a_n561_21# a_n605_109# a_n707_n1301# sky130_fd_pr__nfet_01v8 ad=6.6e+11p pd=4.66e+06u as=6.2e+11p ps=4.62e+06u w=2e+06u l=150000u
X29 a_n321_109# a_n369_21# a_n417_109# a_n707_n1301# sky130_fd_pr__nfet_01v8 ad=6.6e+11p pd=4.66e+06u as=6.6e+11p ps=4.66e+06u w=2e+06u l=150000u
X30 a_n225_109# a_n273_531# a_n321_109# a_n707_n1301# sky130_fd_pr__nfet_01v8 ad=6.6e+11p pd=4.66e+06u as=0p ps=0u w=2e+06u l=150000u
X31 a_n417_109# a_n465_531# a_n513_109# a_n707_n1301# sky130_fd_pr__nfet_01v8 ad=0p pd=0u as=0p ps=0u w=2e+06u l=150000u
X32 a_n129_109# a_n177_21# a_n225_109# a_n707_n1301# sky130_fd_pr__nfet_01v8 ad=0p pd=0u as=0p ps=0u w=2e+06u l=150000u
X33 a_255_n509# a_207_n87# a_159_n509# a_n707_n1301# sky130_fd_pr__nfet_01v8 ad=0p pd=0u as=6.6e+11p ps=4.66e+06u w=2e+06u l=150000u
X34 a_n321_n509# a_n369_n87# a_n417_n509# a_n707_n1301# sky130_fd_pr__nfet_01v8 ad=6.6e+11p pd=4.66e+06u as=0p ps=0u w=2e+06u l=150000u
X35 a_63_727# a_15_1149# a_n33_727# a_n707_n1301# sky130_fd_pr__nfet_01v8 ad=0p pd=0u as=0p ps=0u w=2e+06u l=150000u
X36 a_543_n509# a_495_n597# a_447_n509# a_n707_n1301# sky130_fd_pr__nfet_01v8 ad=6.2e+11p pd=4.62e+06u as=6.6e+11p ps=4.66e+06u w=2e+06u l=150000u
X37 a_n33_n1127# a_n81_n705# a_n129_n1127# a_n707_n1301# sky130_fd_pr__nfet_01v8 ad=0p pd=0u as=6.6e+11p ps=4.66e+06u w=2e+06u l=150000u
X38 a_63_109# a_15_21# a_n33_109# a_n707_n1301# sky130_fd_pr__nfet_01v8 ad=0p pd=0u as=0p ps=0u w=2e+06u l=150000u
X39 a_159_n509# a_111_n597# a_63_n509# a_n707_n1301# sky130_fd_pr__nfet_01v8 ad=0p pd=0u as=6.6e+11p ps=4.66e+06u w=2e+06u l=150000u
X40 a_n225_n509# a_n273_n597# a_n321_n509# a_n707_n1301# sky130_fd_pr__nfet_01v8 ad=0p pd=0u as=0p ps=0u w=2e+06u l=150000u
X41 a_447_n509# a_399_n87# a_351_n509# a_n707_n1301# sky130_fd_pr__nfet_01v8 ad=0p pd=0u as=0p ps=0u w=2e+06u l=150000u
X42 a_n129_n1127# a_n177_n1215# a_n225_n1127# a_n707_n1301# sky130_fd_pr__nfet_01v8 ad=0p pd=0u as=6.6e+11p ps=4.66e+06u w=2e+06u l=150000u
X43 a_447_n1127# a_399_n1215# a_351_n1127# a_n707_n1301# sky130_fd_pr__nfet_01v8 ad=6.6e+11p pd=4.66e+06u as=0p ps=0u w=2e+06u l=150000u
X44 a_n513_n509# a_n561_n87# a_n605_n509# a_n707_n1301# sky130_fd_pr__nfet_01v8 ad=0p pd=0u as=6.2e+11p ps=4.62e+06u w=2e+06u l=150000u
X45 a_63_n509# a_15_n87# a_n33_n509# a_n707_n1301# sky130_fd_pr__nfet_01v8 ad=0p pd=0u as=0p ps=0u w=2e+06u l=150000u
X46 a_n225_n1127# a_n273_n705# a_n321_n1127# a_n707_n1301# sky130_fd_pr__nfet_01v8 ad=0p pd=0u as=0p ps=0u w=2e+06u l=150000u
X47 a_543_n1127# a_495_n705# a_447_n1127# a_n707_n1301# sky130_fd_pr__nfet_01v8 ad=6.2e+11p pd=4.62e+06u as=0p ps=0u w=2e+06u l=150000u
.ends

.subckt lvds_currm_n m1_76_644# m1_n20_420# a_42_42# VSUBS
Xsky130_fd_pr__nfet_01v8_HR8DH9_0 a_42_42# a_42_42# VSUBS a_42_42# m1_n20_420# a_42_42#
+ VSUBS m1_n20_420# a_42_42# VSUBS VSUBS VSUBS m1_n20_420# a_42_42# m1_n20_420# a_42_42#
+ VSUBS m1_n20_420# VSUBS a_42_42# a_42_42# VSUBS a_42_42# a_42_42# m1_n20_420# a_42_42#
+ sky130_fd_pr__nfet_01v8_HR8DH9
Xsky130_fd_pr__nfet_01v8_XZXALN_0 m1_76_644# m1_76_644# a_42_42# a_42_42# m1_n20_420#
+ a_42_42# m1_76_644# a_42_42# VSUBS a_42_42# a_42_42# a_42_42# a_42_42# a_42_42#
+ m1_76_644# a_42_42# m1_76_644# a_42_42# a_42_42# m1_n20_420# m1_n20_420# a_42_42#
+ m1_76_644# m1_76_644# a_42_42# m1_76_644# a_42_42# a_42_42# m1_76_644# m1_n20_420#
+ m1_76_644# m1_n20_420# m1_n20_420# a_42_42# m1_76_644# m1_n20_420# m1_76_644# a_42_42#
+ m1_76_644# m1_n20_420# m1_76_644# a_42_42# m1_n20_420# a_42_42# m1_76_644# m1_76_644#
+ a_42_42# m1_n20_420# m1_76_644# m1_76_644# m1_n20_420# m1_n20_420# m1_n20_420# m1_n20_420#
+ m1_76_644# m1_n20_420# m1_n20_420# a_42_42# a_42_42# a_42_42# a_42_42# m1_n20_420#
+ m1_n20_420# a_42_42# a_42_42# a_42_42# a_42_42# a_42_42# a_42_42# m1_n20_420# a_42_42#
+ a_42_42# a_42_42# m1_n20_420# m1_n20_420# a_42_42# a_42_42# m1_n20_420# m1_76_644#
+ m1_76_644# m1_76_644# a_42_42# a_42_42# m1_n20_420# a_42_42# m1_n20_420# m1_n20_420#
+ m1_n20_420# a_42_42# a_42_42# a_42_42# m1_76_644# m1_76_644# m1_n20_420# m1_n20_420#
+ a_42_42# a_42_42# a_42_42# a_42_42# a_42_42# a_42_42# sky130_fd_pr__nfet_01v8_XZXALN
.ends

.subckt sky130_fd_pr__res_xhigh_po_0p35_ZPVFQL a_n194_n1432# a_n324_n1562# a_n194_1000#
+ a_124_n1432# a_124_1000#
X0 a_124_n1432# a_124_1000# a_n324_n1562# sky130_fd_pr__res_xhigh_po_0p35 l=1e+07u
X1 a_n194_n1432# a_n194_1000# a_n324_n1562# sky130_fd_pr__res_xhigh_po_0p35 l=1e+07u
.ends

.subckt sky130_fd_sc_hs__inv_16 A VGND VPWR Y VNB VPB
X0 Y A VPWR VPB sky130_fd_pr__pfet_01v8 ad=2.7216e+12p pd=2.278e+07u as=3.4272e+12p ps=2.628e+07u w=1.12e+06u l=150000u
X1 Y A VPWR VPB sky130_fd_pr__pfet_01v8 ad=0p pd=0u as=0p ps=0u w=1.12e+06u l=150000u
X2 VPWR A Y VPB sky130_fd_pr__pfet_01v8 ad=0p pd=0u as=0p ps=0u w=1.12e+06u l=150000u
X3 Y A VPWR VPB sky130_fd_pr__pfet_01v8 ad=0p pd=0u as=0p ps=0u w=1.12e+06u l=150000u
X4 Y A VGND VNB sky130_fd_pr__nfet_01v8_lvt ad=1.6576e+12p pd=1.632e+07u as=2.2718e+12p ps=1.946e+07u w=740000u l=150000u
X5 VGND A Y VNB sky130_fd_pr__nfet_01v8_lvt ad=0p pd=0u as=0p ps=0u w=740000u l=150000u
X6 Y A VPWR VPB sky130_fd_pr__pfet_01v8 ad=0p pd=0u as=0p ps=0u w=1.12e+06u l=150000u
X7 VGND A Y VNB sky130_fd_pr__nfet_01v8_lvt ad=0p pd=0u as=0p ps=0u w=740000u l=150000u
X8 VPWR A Y VPB sky130_fd_pr__pfet_01v8 ad=0p pd=0u as=0p ps=0u w=1.12e+06u l=150000u
X9 VPWR A Y VPB sky130_fd_pr__pfet_01v8 ad=0p pd=0u as=0p ps=0u w=1.12e+06u l=150000u
X10 Y A VPWR VPB sky130_fd_pr__pfet_01v8 ad=0p pd=0u as=0p ps=0u w=1.12e+06u l=150000u
X11 Y A VGND VNB sky130_fd_pr__nfet_01v8_lvt ad=0p pd=0u as=0p ps=0u w=740000u l=150000u
X12 VGND A Y VNB sky130_fd_pr__nfet_01v8_lvt ad=0p pd=0u as=0p ps=0u w=740000u l=150000u
X13 VGND A Y VNB sky130_fd_pr__nfet_01v8_lvt ad=0p pd=0u as=0p ps=0u w=740000u l=150000u
X14 VPWR A Y VPB sky130_fd_pr__pfet_01v8 ad=0p pd=0u as=0p ps=0u w=1.12e+06u l=150000u
X15 Y A VGND VNB sky130_fd_pr__nfet_01v8_lvt ad=0p pd=0u as=0p ps=0u w=740000u l=150000u
X16 Y A VPWR VPB sky130_fd_pr__pfet_01v8 ad=0p pd=0u as=0p ps=0u w=1.12e+06u l=150000u
X17 VGND A Y VNB sky130_fd_pr__nfet_01v8_lvt ad=0p pd=0u as=0p ps=0u w=740000u l=150000u
X18 VPWR A Y VPB sky130_fd_pr__pfet_01v8 ad=0p pd=0u as=0p ps=0u w=1.12e+06u l=150000u
X19 Y A VGND VNB sky130_fd_pr__nfet_01v8_lvt ad=0p pd=0u as=0p ps=0u w=740000u l=150000u
X20 VPWR A Y VPB sky130_fd_pr__pfet_01v8 ad=0p pd=0u as=0p ps=0u w=1.12e+06u l=150000u
X21 Y A VPWR VPB sky130_fd_pr__pfet_01v8 ad=0p pd=0u as=0p ps=0u w=1.12e+06u l=150000u
X22 VPWR A Y VPB sky130_fd_pr__pfet_01v8 ad=0p pd=0u as=0p ps=0u w=1.12e+06u l=150000u
X23 VGND A Y VNB sky130_fd_pr__nfet_01v8_lvt ad=0p pd=0u as=0p ps=0u w=740000u l=150000u
X24 Y A VPWR VPB sky130_fd_pr__pfet_01v8 ad=0p pd=0u as=0p ps=0u w=1.12e+06u l=150000u
X25 VGND A Y VNB sky130_fd_pr__nfet_01v8_lvt ad=0p pd=0u as=0p ps=0u w=740000u l=150000u
X26 Y A VGND VNB sky130_fd_pr__nfet_01v8_lvt ad=0p pd=0u as=0p ps=0u w=740000u l=150000u
X27 VGND A Y VNB sky130_fd_pr__nfet_01v8_lvt ad=0p pd=0u as=0p ps=0u w=740000u l=150000u
X28 Y A VGND VNB sky130_fd_pr__nfet_01v8_lvt ad=0p pd=0u as=0p ps=0u w=740000u l=150000u
X29 VPWR A Y VPB sky130_fd_pr__pfet_01v8 ad=0p pd=0u as=0p ps=0u w=1.12e+06u l=150000u
X30 Y A VGND VNB sky130_fd_pr__nfet_01v8_lvt ad=0p pd=0u as=0p ps=0u w=740000u l=150000u
X31 Y A VGND VNB sky130_fd_pr__nfet_01v8_lvt ad=0p pd=0u as=0p ps=0u w=740000u l=150000u
.ends

.subckt sky130_fd_pr__res_xhigh_po_0p35_RS2YEK a_283_1000# a_n353_n1432# a_n35_n1432#
+ a_n35_1000# a_n483_n1562# a_n353_1000# a_283_n1432#
X0 a_n353_n1432# a_n353_1000# a_n483_n1562# sky130_fd_pr__res_xhigh_po_0p35 l=1e+07u
X1 a_283_n1432# a_283_1000# a_n483_n1562# sky130_fd_pr__res_xhigh_po_0p35 l=1e+07u
X2 a_n35_n1432# a_n35_1000# a_n483_n1562# sky130_fd_pr__res_xhigh_po_0p35 l=1e+07u
.ends

.subckt sky130_fd_pr__pfet_01v8_8DK6RJ a_n321_n518# a_255_n1154# a_543_n1154# a_n369_21#
+ a_n33_118# a_351_754# a_351_n1154# a_n81_657# a_n33_754# a_495_n723# a_n369_n1251#
+ a_n177_n1251# a_n561_n1251# a_399_21# a_n225_118# w_n743_n1373# a_n273_657# a_n225_754#
+ a_n177_n87# a_15_1185# a_n33_n518# a_n561_1185# a_303_n615# a_n177_1185# a_399_n1251#
+ a_n465_549# a_543_118# a_543_754# a_n465_n615# a_n605_n518# a_63_118# a_447_n518#
+ a_63_754# a_n605_118# a_n417_118# a_303_n723# a_n465_657# a_n605_754# a_n417_754#
+ a_n369_n87# a_255_118# a_543_n518# a_159_n518# a_n465_n723# a_111_n615# a_255_754#
+ a_495_549# a_111_549# a_n273_n615# a_n129_118# a_255_n518# a_n129_754# a_n561_n87#
+ a_n605_n1154# a_111_n723# a_399_1185# a_n561_21# a_447_118# a_n177_21# a_495_657#
+ a_351_n518# a_n417_n518# a_111_657# a_447_754# a_n273_n723# a_207_21# a_399_n87#
+ a_15_n1251# a_n321_118# a_n321_754# a_303_549# a_63_n1154# a_n513_n518# a_n129_n518#
+ a_n81_n615# a_15_n87# a_15_21# a_n33_n1154# a_159_118# a_63_n518# a_159_754# a_207_1185#
+ a_n417_n1154# a_n129_n1154# a_n513_n1154# a_n225_n1154# a_n81_549# a_303_657# a_n321_n1154#
+ a_n225_n518# a_495_n615# a_n513_118# a_207_n87# a_n81_n723# a_n513_754# a_207_n1251#
+ a_n369_1185# a_n273_549# a_159_n1154# a_447_n1154# a_351_118#
X0 a_447_n518# a_399_n87# a_351_n518# w_n743_n1373# sky130_fd_pr__pfet_01v8 ad=6.6e+11p pd=4.66e+06u as=6.6e+11p ps=4.66e+06u w=2e+06u l=150000u
X1 a_n513_n518# a_n561_n87# a_n605_n518# w_n743_n1373# sky130_fd_pr__pfet_01v8 ad=6.6e+11p pd=4.66e+06u as=6.2e+11p ps=4.62e+06u w=2e+06u l=150000u
X2 a_63_n518# a_15_n87# a_n33_n518# w_n743_n1373# sky130_fd_pr__pfet_01v8 ad=6.6e+11p pd=4.66e+06u as=6.6e+11p ps=4.66e+06u w=2e+06u l=150000u
X3 a_n33_754# a_n81_657# a_n129_754# w_n743_n1373# sky130_fd_pr__pfet_01v8 ad=6.6e+11p pd=4.66e+06u as=6.6e+11p ps=4.66e+06u w=2e+06u l=150000u
X4 a_351_754# a_303_657# a_255_754# w_n743_n1373# sky130_fd_pr__pfet_01v8 ad=6.6e+11p pd=4.66e+06u as=6.6e+11p ps=4.66e+06u w=2e+06u l=150000u
X5 a_159_754# a_111_657# a_63_754# w_n743_n1373# sky130_fd_pr__pfet_01v8 ad=6.6e+11p pd=4.66e+06u as=6.6e+11p ps=4.66e+06u w=2e+06u l=150000u
X6 a_255_754# a_207_1185# a_159_754# w_n743_n1373# sky130_fd_pr__pfet_01v8 ad=0p pd=0u as=0p ps=0u w=2e+06u l=150000u
X7 a_447_754# a_399_1185# a_351_754# w_n743_n1373# sky130_fd_pr__pfet_01v8 ad=6.6e+11p pd=4.66e+06u as=0p ps=0u w=2e+06u l=150000u
X8 a_543_754# a_495_657# a_447_754# w_n743_n1373# sky130_fd_pr__pfet_01v8 ad=6.2e+11p pd=4.62e+06u as=0p ps=0u w=2e+06u l=150000u
X9 a_63_n1154# a_15_n1251# a_n33_n1154# w_n743_n1373# sky130_fd_pr__pfet_01v8 ad=6.6e+11p pd=4.66e+06u as=6.6e+11p ps=4.66e+06u w=2e+06u l=150000u
X10 a_159_n1154# a_111_n723# a_63_n1154# w_n743_n1373# sky130_fd_pr__pfet_01v8 ad=6.6e+11p pd=4.66e+06u as=0p ps=0u w=2e+06u l=150000u
X11 a_n129_n518# a_n177_n87# a_n225_n518# w_n743_n1373# sky130_fd_pr__pfet_01v8 ad=6.6e+11p pd=4.66e+06u as=6.6e+11p ps=4.66e+06u w=2e+06u l=150000u
X12 a_n513_754# a_n561_1185# a_n605_754# w_n743_n1373# sky130_fd_pr__pfet_01v8 ad=6.6e+11p pd=4.66e+06u as=6.2e+11p ps=4.62e+06u w=2e+06u l=150000u
X13 a_n321_754# a_n369_1185# a_n417_754# w_n743_n1373# sky130_fd_pr__pfet_01v8 ad=6.6e+11p pd=4.66e+06u as=6.6e+11p ps=4.66e+06u w=2e+06u l=150000u
X14 a_n225_754# a_n273_657# a_n321_754# w_n743_n1373# sky130_fd_pr__pfet_01v8 ad=6.6e+11p pd=4.66e+06u as=0p ps=0u w=2e+06u l=150000u
X15 a_255_n1154# a_207_n1251# a_159_n1154# w_n743_n1373# sky130_fd_pr__pfet_01v8 ad=6.6e+11p pd=4.66e+06u as=0p ps=0u w=2e+06u l=150000u
X16 a_n417_754# a_n465_657# a_n513_754# w_n743_n1373# sky130_fd_pr__pfet_01v8 ad=0p pd=0u as=0p ps=0u w=2e+06u l=150000u
X17 a_n129_754# a_n177_1185# a_n225_754# w_n743_n1373# sky130_fd_pr__pfet_01v8 ad=0p pd=0u as=0p ps=0u w=2e+06u l=150000u
X18 a_n417_n518# a_n465_n615# a_n513_n518# w_n743_n1373# sky130_fd_pr__pfet_01v8 ad=6.6e+11p pd=4.66e+06u as=0p ps=0u w=2e+06u l=150000u
X19 a_n417_n1154# a_n465_n723# a_n513_n1154# w_n743_n1373# sky130_fd_pr__pfet_01v8 ad=6.6e+11p pd=4.66e+06u as=6.6e+11p ps=4.66e+06u w=2e+06u l=150000u
X20 a_351_n1154# a_303_n723# a_255_n1154# w_n743_n1373# sky130_fd_pr__pfet_01v8 ad=6.6e+11p pd=4.66e+06u as=0p ps=0u w=2e+06u l=150000u
X21 a_n513_n1154# a_n561_n1251# a_n605_n1154# w_n743_n1373# sky130_fd_pr__pfet_01v8 ad=0p pd=0u as=6.2e+11p ps=4.62e+06u w=2e+06u l=150000u
X22 a_63_754# a_15_1185# a_n33_754# w_n743_n1373# sky130_fd_pr__pfet_01v8 ad=0p pd=0u as=0p ps=0u w=2e+06u l=150000u
X23 a_n33_n518# a_n81_n615# a_n129_n518# w_n743_n1373# sky130_fd_pr__pfet_01v8 ad=0p pd=0u as=0p ps=0u w=2e+06u l=150000u
X24 a_351_n518# a_303_n615# a_255_n518# w_n743_n1373# sky130_fd_pr__pfet_01v8 ad=0p pd=0u as=6.6e+11p ps=4.66e+06u w=2e+06u l=150000u
X25 a_n33_118# a_n81_549# a_n129_118# w_n743_n1373# sky130_fd_pr__pfet_01v8 ad=6.6e+11p pd=4.66e+06u as=6.6e+11p ps=4.66e+06u w=2e+06u l=150000u
X26 a_351_118# a_303_549# a_255_118# w_n743_n1373# sky130_fd_pr__pfet_01v8 ad=6.6e+11p pd=4.66e+06u as=6.6e+11p ps=4.66e+06u w=2e+06u l=150000u
X27 a_159_118# a_111_549# a_63_118# w_n743_n1373# sky130_fd_pr__pfet_01v8 ad=6.6e+11p pd=4.66e+06u as=6.6e+11p ps=4.66e+06u w=2e+06u l=150000u
X28 a_255_118# a_207_21# a_159_118# w_n743_n1373# sky130_fd_pr__pfet_01v8 ad=0p pd=0u as=0p ps=0u w=2e+06u l=150000u
X29 a_447_118# a_399_21# a_351_118# w_n743_n1373# sky130_fd_pr__pfet_01v8 ad=6.6e+11p pd=4.66e+06u as=0p ps=0u w=2e+06u l=150000u
X30 a_543_118# a_495_549# a_447_118# w_n743_n1373# sky130_fd_pr__pfet_01v8 ad=6.2e+11p pd=4.62e+06u as=0p ps=0u w=2e+06u l=150000u
X31 a_n33_n1154# a_n81_n723# a_n129_n1154# w_n743_n1373# sky130_fd_pr__pfet_01v8 ad=0p pd=0u as=6.6e+11p ps=4.66e+06u w=2e+06u l=150000u
X32 a_n513_118# a_n561_21# a_n605_118# w_n743_n1373# sky130_fd_pr__pfet_01v8 ad=6.6e+11p pd=4.66e+06u as=6.2e+11p ps=4.62e+06u w=2e+06u l=150000u
X33 a_n321_118# a_n369_21# a_n417_118# w_n743_n1373# sky130_fd_pr__pfet_01v8 ad=6.6e+11p pd=4.66e+06u as=6.6e+11p ps=4.66e+06u w=2e+06u l=150000u
X34 a_n225_118# a_n273_549# a_n321_118# w_n743_n1373# sky130_fd_pr__pfet_01v8 ad=6.6e+11p pd=4.66e+06u as=0p ps=0u w=2e+06u l=150000u
X35 a_n417_118# a_n465_549# a_n513_118# w_n743_n1373# sky130_fd_pr__pfet_01v8 ad=0p pd=0u as=0p ps=0u w=2e+06u l=150000u
X36 a_n129_118# a_n177_21# a_n225_118# w_n743_n1373# sky130_fd_pr__pfet_01v8 ad=0p pd=0u as=0p ps=0u w=2e+06u l=150000u
X37 a_255_n518# a_207_n87# a_159_n518# w_n743_n1373# sky130_fd_pr__pfet_01v8 ad=0p pd=0u as=6.6e+11p ps=4.66e+06u w=2e+06u l=150000u
X38 a_n129_n1154# a_n177_n1251# a_n225_n1154# w_n743_n1373# sky130_fd_pr__pfet_01v8 ad=0p pd=0u as=6.6e+11p ps=4.66e+06u w=2e+06u l=150000u
X39 a_447_n1154# a_399_n1251# a_351_n1154# w_n743_n1373# sky130_fd_pr__pfet_01v8 ad=6.6e+11p pd=4.66e+06u as=0p ps=0u w=2e+06u l=150000u
X40 a_n321_n518# a_n369_n87# a_n417_n518# w_n743_n1373# sky130_fd_pr__pfet_01v8 ad=6.6e+11p pd=4.66e+06u as=0p ps=0u w=2e+06u l=150000u
X41 a_543_n518# a_495_n615# a_447_n518# w_n743_n1373# sky130_fd_pr__pfet_01v8 ad=6.2e+11p pd=4.62e+06u as=0p ps=0u w=2e+06u l=150000u
X42 a_n225_n1154# a_n273_n723# a_n321_n1154# w_n743_n1373# sky130_fd_pr__pfet_01v8 ad=0p pd=0u as=6.6e+11p ps=4.66e+06u w=2e+06u l=150000u
X43 a_543_n1154# a_495_n723# a_447_n1154# w_n743_n1373# sky130_fd_pr__pfet_01v8 ad=6.2e+11p pd=4.62e+06u as=0p ps=0u w=2e+06u l=150000u
X44 a_n321_n1154# a_n369_n1251# a_n417_n1154# w_n743_n1373# sky130_fd_pr__pfet_01v8 ad=0p pd=0u as=0p ps=0u w=2e+06u l=150000u
X45 a_63_118# a_15_21# a_n33_118# w_n743_n1373# sky130_fd_pr__pfet_01v8 ad=0p pd=0u as=0p ps=0u w=2e+06u l=150000u
X46 a_159_n518# a_111_n615# a_63_n518# w_n743_n1373# sky130_fd_pr__pfet_01v8 ad=0p pd=0u as=0p ps=0u w=2e+06u l=150000u
X47 a_n225_n518# a_n273_n615# a_n321_n518# w_n743_n1373# sky130_fd_pr__pfet_01v8 ad=0p pd=0u as=0p ps=0u w=2e+06u l=150000u
.ends

.subckt sky130_fd_pr__pfet_01v8_9Z5L4S a_n383_n518# a_498_n615# a_380_21# a_n92_21#
+ a_n737_n518# a_325_118# a_443_n518# a_n265_n518# a_89_118# a_n619_n518# a_26_n615#
+ a_n265_118# a_n501_118# a_679_n518# a_325_n518# a_n682_n615# a_n147_n518# a_443_118#
+ a_26_21# a_207_n518# a_n210_n615# a_n564_n615# a_n328_21# a_n383_118# a_n446_21#
+ a_n29_n518# a_n564_21# a_n619_118# a_n682_21# a_380_n615# a_n92_n615# a_89_n518#
+ a_n446_n615# a_561_118# a_n210_21# a_262_n615# a_n328_n615# a_n29_118# a_616_21#
+ a_498_21# a_207_118# a_n737_118# a_n501_n518# a_616_n615# w_n875_n737# a_144_21#
+ a_561_n518# a_144_n615# a_679_118# a_n147_118# a_262_21#
X0 a_n383_118# a_n446_21# a_n501_118# w_n875_n737# sky130_fd_pr__pfet_01v8 ad=5.8e+11p pd=4.58e+06u as=5.8e+11p ps=4.58e+06u w=2e+06u l=300000u
X1 a_679_n518# a_616_n615# a_561_n518# w_n875_n737# sky130_fd_pr__pfet_01v8 ad=5.8e+11p pd=4.58e+06u as=5.8e+11p ps=4.58e+06u w=2e+06u l=300000u
X2 a_n29_118# a_n92_21# a_n147_118# w_n875_n737# sky130_fd_pr__pfet_01v8 ad=5.8e+11p pd=4.58e+06u as=5.8e+11p ps=4.58e+06u w=2e+06u l=300000u
X3 a_n265_118# a_n328_21# a_n383_118# w_n875_n737# sky130_fd_pr__pfet_01v8 ad=5.8e+11p pd=4.58e+06u as=0p ps=0u w=2e+06u l=300000u
X4 a_443_n518# a_380_n615# a_325_n518# w_n875_n737# sky130_fd_pr__pfet_01v8 ad=5.8e+11p pd=4.58e+06u as=5.8e+11p ps=4.58e+06u w=2e+06u l=300000u
X5 a_89_118# a_26_21# a_n29_118# w_n875_n737# sky130_fd_pr__pfet_01v8 ad=5.8e+11p pd=4.58e+06u as=0p ps=0u w=2e+06u l=300000u
X6 a_n383_n518# a_n446_n615# a_n501_n518# w_n875_n737# sky130_fd_pr__pfet_01v8 ad=5.8e+11p pd=4.58e+06u as=5.8e+11p ps=4.58e+06u w=2e+06u l=300000u
X7 a_n147_118# a_n210_21# a_n265_118# w_n875_n737# sky130_fd_pr__pfet_01v8 ad=0p pd=0u as=0p ps=0u w=2e+06u l=300000u
X8 a_679_118# a_616_21# a_561_118# w_n875_n737# sky130_fd_pr__pfet_01v8 ad=5.8e+11p pd=4.58e+06u as=5.8e+11p ps=4.58e+06u w=2e+06u l=300000u
X9 a_443_118# a_380_21# a_325_118# w_n875_n737# sky130_fd_pr__pfet_01v8 ad=5.8e+11p pd=4.58e+06u as=5.8e+11p ps=4.58e+06u w=2e+06u l=300000u
X10 a_n619_n518# a_n682_n615# a_n737_n518# w_n875_n737# sky130_fd_pr__pfet_01v8 ad=5.8e+11p pd=4.58e+06u as=5.8e+11p ps=4.58e+06u w=2e+06u l=300000u
X11 a_n29_n518# a_n92_n615# a_n147_n518# w_n875_n737# sky130_fd_pr__pfet_01v8 ad=5.8e+11p pd=4.58e+06u as=5.8e+11p ps=4.58e+06u w=2e+06u l=300000u
X12 a_561_118# a_498_21# a_443_118# w_n875_n737# sky130_fd_pr__pfet_01v8 ad=0p pd=0u as=0p ps=0u w=2e+06u l=300000u
X13 a_325_n518# a_262_n615# a_207_n518# w_n875_n737# sky130_fd_pr__pfet_01v8 ad=0p pd=0u as=5.8e+11p ps=4.58e+06u w=2e+06u l=300000u
X14 a_325_118# a_262_21# a_207_118# w_n875_n737# sky130_fd_pr__pfet_01v8 ad=0p pd=0u as=5.8e+11p ps=4.58e+06u w=2e+06u l=300000u
X15 a_561_n518# a_498_n615# a_443_n518# w_n875_n737# sky130_fd_pr__pfet_01v8 ad=0p pd=0u as=0p ps=0u w=2e+06u l=300000u
X16 a_n265_n518# a_n328_n615# a_n383_n518# w_n875_n737# sky130_fd_pr__pfet_01v8 ad=5.8e+11p pd=4.58e+06u as=0p ps=0u w=2e+06u l=300000u
X17 a_n619_118# a_n682_21# a_n737_118# w_n875_n737# sky130_fd_pr__pfet_01v8 ad=5.8e+11p pd=4.58e+06u as=5.8e+11p ps=4.58e+06u w=2e+06u l=300000u
X18 a_207_118# a_144_21# a_89_118# w_n875_n737# sky130_fd_pr__pfet_01v8 ad=0p pd=0u as=0p ps=0u w=2e+06u l=300000u
X19 a_n501_118# a_n564_21# a_n619_118# w_n875_n737# sky130_fd_pr__pfet_01v8 ad=0p pd=0u as=0p ps=0u w=2e+06u l=300000u
X20 a_89_n518# a_26_n615# a_n29_n518# w_n875_n737# sky130_fd_pr__pfet_01v8 ad=5.8e+11p pd=4.58e+06u as=0p ps=0u w=2e+06u l=300000u
X21 a_207_n518# a_144_n615# a_89_n518# w_n875_n737# sky130_fd_pr__pfet_01v8 ad=0p pd=0u as=0p ps=0u w=2e+06u l=300000u
X22 a_n501_n518# a_n564_n615# a_n619_n518# w_n875_n737# sky130_fd_pr__pfet_01v8 ad=0p pd=0u as=0p ps=0u w=2e+06u l=300000u
X23 a_n147_n518# a_n210_n615# a_n265_n518# w_n875_n737# sky130_fd_pr__pfet_01v8 ad=0p pd=0u as=0p ps=0u w=2e+06u l=300000u
.ends

.subckt lvds_currm_p a_112_112# m1_60_208# m1_60_1070# w_112_640#
Xsky130_fd_pr__pfet_01v8_8DK6RJ_0 m1_60_208# m1_60_1070# m1_60_208# a_112_112# m1_60_1070#
+ m1_60_1070# m1_60_208# a_112_112# m1_60_1070# a_112_112# a_112_112# a_112_112# a_112_112#
+ a_112_112# m1_60_1070# w_112_640# a_112_112# m1_60_1070# a_112_112# a_112_112# m1_60_1070#
+ a_112_112# a_112_112# a_112_112# a_112_112# a_112_112# m1_60_1070# m1_60_1070# a_112_112#
+ m1_60_1070# m1_60_208# m1_60_208# m1_60_208# m1_60_1070# m1_60_1070# a_112_112#
+ a_112_112# m1_60_1070# m1_60_1070# a_112_112# m1_60_208# m1_60_1070# m1_60_1070#
+ a_112_112# a_112_112# m1_60_208# a_112_112# a_112_112# a_112_112# m1_60_208# m1_60_208#
+ m1_60_208# a_112_112# m1_60_208# a_112_112# a_112_112# a_112_112# m1_60_208# a_112_112#
+ a_112_112# m1_60_1070# m1_60_1070# a_112_112# m1_60_208# a_112_112# a_112_112# a_112_112#
+ a_112_112# m1_60_208# m1_60_208# a_112_112# m1_60_1070# m1_60_208# m1_60_208# a_112_112#
+ a_112_112# a_112_112# m1_60_208# m1_60_1070# m1_60_208# m1_60_1070# a_112_112# m1_60_208#
+ m1_60_1070# m1_60_1070# m1_60_208# a_112_112# a_112_112# m1_60_1070# m1_60_1070#
+ a_112_112# m1_60_208# a_112_112# a_112_112# m1_60_208# a_112_112# a_112_112# a_112_112#
+ m1_60_208# m1_60_1070# m1_60_1070# sky130_fd_pr__pfet_01v8_8DK6RJ
Xsky130_fd_pr__pfet_01v8_9Z5L4S_0 w_112_640# a_112_112# a_112_112# a_112_112# m1_60_1070#
+ w_112_640# m1_60_1070# m1_60_1070# w_112_640# w_112_640# a_112_112# m1_60_1070#
+ m1_60_1070# m1_60_1070# w_112_640# a_112_112# w_112_640# m1_60_1070# a_112_112#
+ m1_60_1070# a_112_112# a_112_112# a_112_112# w_112_640# a_112_112# m1_60_1070# a_112_112#
+ w_112_640# a_112_112# a_112_112# a_112_112# w_112_640# a_112_112# w_112_640# a_112_112#
+ a_112_112# a_112_112# m1_60_1070# a_112_112# a_112_112# m1_60_1070# m1_60_1070#
+ m1_60_1070# a_112_112# w_112_640# a_112_112# w_112_640# a_112_112# m1_60_1070# w_112_640#
+ a_112_112# sky130_fd_pr__pfet_01v8_9Z5L4S
.ends

.subckt sky130_fd_pr__pfet_01v8_VCB4SW a_351_436# a_n81_339# a_n513_n200# a_n321_n836#
+ a_n1329_n297# a_n753_867# a_n33_436# a_n129_n200# a_n945_n405# a_n657_n933# a_831_436#
+ a_15_867# a_639_n836# a_1311_436# a_63_n200# a_1215_n200# a_1023_n836# a_n1041_231#
+ a_879_339# a_n1281_n836# a_1167_n297# a_n1089_n200# a_591_867# a_n273_339# a_n225_436#
+ a_15_n297# a_n81_231# a_n225_n200# a_n1089_436# a_n561_n297# a_591_n405# a_n177_n297#
+ a_n705_436# a_207_867# a_927_n200# a_1311_n200# a_n33_n836# a_735_n836# a_n1233_339#
+ a_303_n933# a_879_231# a_n1185_n200# a_207_n405# a_1359_n405# a_n273_231# a_543_436#
+ a_n1469_n836# a_1071_339# a_n945_867# a_1023_436# a_n321_n200# a_n897_n836# a_n1137_n297#
+ a_n753_n405# a_n465_n933# a_n369_n405# a_831_n836# a_n1233_231# a_63_436# a_975_n297#
+ a_639_n200# a_1023_n200# a_447_n836# a_783_867# a_n1281_n200# a_n1281_436# a_n465_339#
+ a_n417_436# a_1071_231# a_n1469_436# a_n993_n836# a_n1425_n933# a_n1329_n405# a_n177_867#
+ a_n1425_339# a_255_436# a_n33_n200# a_735_n200# a_543_n836# a_n609_n836# a_159_n836#
+ a_111_n933# a_879_n933# a_1263_n933# a_n465_231# a_1167_n405# a_735_436# a_1263_339#
+ a_n1469_n200# a_n1137_867# a_1215_436# a_n897_n200# a_15_n405# a_n993_436# a_n561_n405#
+ a_n273_n933# a_n177_n405# a_n1425_231# a_831_n200# a_n129_436# a_n705_n836# a_975_867#
+ a_783_n297# a_447_n200# a_255_n836# a_399_n297# a_n657_339# a_n609_436# a_1263_231#
+ a_1407_n836# a_n993_n200# a_n1233_n933# a_n369_867# a_n1137_n405# a_495_339# a_447_436#