* SPICE3 file created from isource_flat.ext - technology: sky130A

.subckt isource_flat I_ref VP VN
X0 VM2D VM2D VN VN sky130_fd_pr__nfet_01v8 ad=0p pd=0u as=3.4945e+13p ps=2.5898e+08u w=4e+06u l=6e+06u
X1 a_17176_1646# a_16646_4078# VN sky130_fd_pr__res_xhigh_po_1p41 l=1e+07u
X2 VP VM8D a_19136_919# VP sky130_fd_pr__pfet_01v8 ad=6.2785e+13p pd=4.649e+08u as=0p ps=0u w=4e+06u l=1e+06u
X3 VM2D VM2D VN VN sky130_fd_pr__nfet_01v8 ad=0p pd=0u as=0p ps=0u w=4e+06u l=6e+06u
X4 a_19136_n1351# VM8D VP VP sky130_fd_pr__pfet_01v8 ad=0p pd=0u as=0p ps=0u w=4e+06u l=1e+06u
X5 a_15056_1646# a_14526_4078# VN sky130_fd_pr__res_xhigh_po_1p41 l=1e+07u
X6 VM2D VM9D VM9D VM2D sky130_fd_pr__nfet_01v8_lvt ad=0p pd=0u as=0p ps=0u w=4e+06u l=1e+06u
X7 a_19136_919# VM8D VM14D VP sky130_fd_pr__pfet_01v8 ad=0p pd=0u as=0p ps=0u w=4e+06u l=200000u
X8 VP VM8D a_19136_919# VP sky130_fd_pr__pfet_01v8 ad=0p pd=0u as=0p ps=0u w=4e+06u l=1e+06u
X9 VM2D VM9D VM9D VM2D sky130_fd_pr__nfet_01v8_lvt ad=0p pd=0u as=0p ps=0u w=4e+06u l=1e+06u
X10 VP VM8D a_19136_919# VP sky130_fd_pr__pfet_01v8 ad=0p pd=0u as=0p ps=0u w=4e+06u l=1e+06u
X11 VM12D VM2D VM11D VN sky130_fd_pr__nfet_01v8 ad=0p pd=0u as=0p ps=0u w=4e+06u l=6e+06u
X12 VM12G VM14D VP VM12G sky130_fd_pr__nfet_01v8_lvt ad=0p pd=0u as=1.75622e+14p ps=1.58256e+09u w=4e+06u l=150000u
X13 a_19136_919# VM8D VP VP sky130_fd_pr__pfet_01v8 ad=0p pd=0u as=0p ps=0u w=4e+06u l=1e+06u
X14 VP VM8D a_19136_n1351# VP sky130_fd_pr__pfet_01v8 ad=0p pd=0u as=0p ps=0u w=4e+06u l=1e+06u
X15 a_11158_13910# VM11D VN VN sky130_fd_pr__nfet_01v8_lvt ad=0p pd=0u as=0p ps=0u w=4e+06u l=200000u
X16 VM2D VM9D VM9D VM2D sky130_fd_pr__nfet_01v8_lvt ad=0p pd=0u as=0p ps=0u w=4e+06u l=1e+06u
X17 a_18646_n4664# a_19176_n2232# VN sky130_fd_pr__res_xhigh_po_1p41 l=1e+07u
X18 I_ref VM22D a_216_n2258# VN sky130_fd_pr__nfet_01v8_lvt ad=1.552e+13p pd=1.0376e+08u as=0p ps=0u w=4e+06u l=150000u
X19 VN VM2D VM2D VN sky130_fd_pr__nfet_01v8 ad=0p pd=0u as=0p ps=0u w=4e+06u l=6e+06u
X20 VM3D a_216_n2258# VM22D VN sky130_fd_pr__nfet_01v8 ad=0p pd=0u as=0p ps=0u w=4e+06u l=6e+06u
X21 a_11158_13910# VM11D VN VN sky130_fd_pr__nfet_01v8_lvt ad=0p pd=0u as=0p ps=0u w=4e+06u l=200000u
X22 VM8D VM9D VM11D VM11D sky130_fd_pr__nfet_01v8_lvt ad=0p pd=0u as=0p ps=0u w=4e+06u l=1e+06u
X23 VM3D a_216_n2258# VM22D VN sky130_fd_pr__nfet_01v8 ad=0p pd=0u as=0p ps=0u w=4e+06u l=6e+06u
X24 VM11D VM2D VM12D VN sky130_fd_pr__nfet_01v8 ad=0p pd=0u as=0p ps=0u w=4e+06u l=6e+06u
X25 VM8D VM9D VM11D VM11D sky130_fd_pr__nfet_01v8_lvt ad=0p pd=0u as=0p ps=0u w=4e+06u l=1e+06u
X26 VM12G VM14D VP VM12G sky130_fd_pr__nfet_01v8_lvt ad=0p pd=0u as=0p ps=0u w=4e+06u l=150000u
X27 a_19136_919# VM8D VP VP sky130_fd_pr__pfet_01v8 ad=0p pd=0u as=0p ps=0u w=4e+06u l=1e+06u
X28 VM11D VM2D VM12D VN sky130_fd_pr__nfet_01v8 ad=0p pd=0u as=0p ps=0u w=4e+06u l=6e+06u
X29 a_19136_7699# VM8D VP VP sky130_fd_pr__pfet_01v8 ad=0p pd=0u as=0p ps=0u w=4e+06u l=1e+06u
X30 VP VM8D a_19136_919# VP sky130_fd_pr__pfet_01v8 ad=0p pd=0u as=0p ps=0u w=4e+06u l=1e+06u
X31 VM11D VM2D VM12D VN sky130_fd_pr__nfet_01v8 ad=0p pd=0u as=0p ps=0u w=4e+06u l=6e+06u
X32 VM12D VM2D VM11D VN sky130_fd_pr__nfet_01v8 ad=0p pd=0u as=0p ps=0u w=4e+06u l=6e+06u
X33 VM11D VM9D VM8D VM11D sky130_fd_pr__nfet_01v8_lvt ad=0p pd=0u as=0p ps=0u w=4e+06u l=1e+06u
X34 VM11D VM9D VM8D VM11D sky130_fd_pr__nfet_01v8_lvt ad=0p pd=0u as=0p ps=0u w=4e+06u l=1e+06u
X35 a_19136_7699# VM8D VM8D VP sky130_fd_pr__pfet_01v8 ad=0p pd=0u as=0p ps=0u w=4e+06u l=200000u
X36 VP VM14D VM12G VM12G sky130_fd_pr__nfet_01v8_lvt ad=0p pd=0u as=0p ps=0u w=4e+06u l=150000u
X37 VM11D VM2D VM12D VN sky130_fd_pr__nfet_01v8 ad=0p pd=0u as=0p ps=0u w=4e+06u l=6e+06u
X38 VP VM8D a_19136_919# VP sky130_fd_pr__pfet_01v8 ad=0p pd=0u as=0p ps=0u w=4e+06u l=1e+06u
X39 a_19136_919# VM8D VP VP sky130_fd_pr__pfet_01v8 ad=0p pd=0u as=0p ps=0u w=4e+06u l=1e+06u
X40 a_19136_919# VM8D VM14D VP sky130_fd_pr__pfet_01v8 ad=0p pd=0u as=0p ps=0u w=4e+06u l=200000u
X41 VM2D VM2D VN VN sky130_fd_pr__nfet_01v8 ad=0p pd=0u as=0p ps=0u w=4e+06u l=6e+06u
X42 VM22D a_216_n2258# VM3D VN sky130_fd_pr__nfet_01v8 ad=0p pd=0u as=0p ps=0u w=4e+06u l=6e+06u
X43 VM12D VM2D VM11D VN sky130_fd_pr__nfet_01v8 ad=0p pd=0u as=0p ps=0u w=4e+06u l=6e+06u
X44 VM22D a_216_n2258# VM3D VN sky130_fd_pr__nfet_01v8 ad=0p pd=0u as=0p ps=0u w=4e+06u l=6e+06u
X45 a_19136_n1351# VM8D VM22D VP sky130_fd_pr__pfet_01v8 ad=0p pd=0u as=0p ps=0u w=4e+06u l=200000u
X46 VN a_20236_n2232# VN sky130_fd_pr__res_xhigh_po_1p41 l=1e+07u
X47 VM22D a_216_n2258# VM3D VN sky130_fd_pr__nfet_01v8 ad=0p pd=0u as=0p ps=0u w=4e+06u l=6e+06u
X48 a_11158_13910# VM11D VN VN sky130_fd_pr__nfet_01v8_lvt ad=0p pd=0u as=0p ps=0u w=4e+06u l=200000u
X49 VP VM14D VM12G VM12G sky130_fd_pr__nfet_01v8_lvt ad=0p pd=0u as=0p ps=0u w=4e+06u l=150000u
X50 VP VM8D a_19136_919# VP sky130_fd_pr__pfet_01v8 ad=0p pd=0u as=0p ps=0u w=4e+06u l=1e+06u
X51 VM12G VM14D VP VM12G sky130_fd_pr__nfet_01v8_lvt ad=0p pd=0u as=0p ps=0u w=4e+06u l=150000u
X52 a_19136_919# VM8D VP VP sky130_fd_pr__pfet_01v8 ad=0p pd=0u as=0p ps=0u w=4e+06u l=1e+06u
X53 VM3D a_216_n2258# VM22D VN sky130_fd_pr__nfet_01v8 ad=0p pd=0u as=0p ps=0u w=4e+06u l=6e+06u
X54 VM12D VM2D VM11D VN sky130_fd_pr__nfet_01v8 ad=0p pd=0u as=0p ps=0u w=4e+06u l=6e+06u
X55 a_19136_9959# VM8D VP VP sky130_fd_pr__pfet_01v8 ad=0p pd=0u as=0p ps=0u w=4e+06u l=1e+06u
X56 VM9D VM9D VM2D VM2D sky130_fd_pr__nfet_01v8_lvt ad=0p pd=0u as=0p ps=0u w=4e+06u l=1e+06u
X57 VM12G VM14D VP VM12G sky130_fd_pr__nfet_01v8_lvt ad=0p pd=0u as=0p ps=0u w=4e+06u l=150000u
X58 VP VM8D a_19136_919# VP sky130_fd_pr__pfet_01v8 ad=0p pd=0u as=0p ps=0u w=4e+06u l=1e+06u
X59 VM3G a_13386_4078# VN sky130_fd_pr__res_xhigh_po_1p41 l=1e+07u
X60 I_ref VM22D a_216_n2258# VN sky130_fd_pr__nfet_01v8_lvt ad=0p pd=0u as=0p ps=0u w=4e+06u l=150000u
X61 VP VM8D a_19136_919# VP sky130_fd_pr__pfet_01v8 ad=0p pd=0u as=0p ps=0u w=4e+06u l=1e+06u
X62 VP VM8D a_19136_919# VP sky130_fd_pr__pfet_01v8 ad=0p pd=0u as=0p ps=0u w=4e+06u l=1e+06u
X63 VM3D a_216_n2258# VM22D VN sky130_fd_pr__nfet_01v8 ad=0p pd=0u as=0p ps=0u w=4e+06u l=6e+06u
X64 a_19136_919# VM8D VM14D VP sky130_fd_pr__pfet_01v8 ad=0p pd=0u as=0p ps=0u w=4e+06u l=200000u
X65 VM11D VM2D VM12D VN sky130_fd_pr__nfet_01v8 ad=0p pd=0u as=0p ps=0u w=4e+06u l=6e+06u
X66 VM11D VM2D VM12D VN sky130_fd_pr__nfet_01v8 ad=0p pd=0u as=0p ps=0u w=4e+06u l=6e+06u
X67 a_19706_n4664# a_19176_n2232# VN sky130_fd_pr__res_xhigh_po_1p41 l=1e+07u
X68 VM9D VM9D VM2D VM2D sky130_fd_pr__nfet_01v8_lvt ad=0p pd=0u as=0p ps=0u w=4e+06u l=1e+06u
X69 VM12D VM2D VM11D VN sky130_fd_pr__nfet_01v8 ad=0p pd=0u as=0p ps=0u w=4e+06u l=6e+06u
X70 a_19136_919# VM8D VP VP sky130_fd_pr__pfet_01v8 ad=0p pd=0u as=0p ps=0u w=4e+06u l=1e+06u
X71 VM12D VM2D VM11D VN sky130_fd_pr__nfet_01v8 ad=0p pd=0u as=0p ps=0u w=4e+06u l=6e+06u
X72 a_19136_919# VM8D VP VP sky130_fd_pr__pfet_01v8 ad=0p pd=0u as=0p ps=0u w=4e+06u l=1e+06u
X73 VP VM8D a_19136_919# VP sky130_fd_pr__pfet_01v8 ad=0p pd=0u as=0p ps=0u w=4e+06u l=1e+06u
X74 VM3D VM3G VN VN sky130_fd_pr__nfet_01v8 ad=0p pd=0u as=0p ps=0u w=4e+06u l=6e+06u
X75 VM12D VM2D VM11D VN sky130_fd_pr__nfet_01v8 ad=0p pd=0u as=0p ps=0u w=4e+06u l=6e+06u
X76 VM12D VM2D VM11D VN sky130_fd_pr__nfet_01v8 ad=0p pd=0u as=0p ps=0u w=4e+06u l=6e+06u
X77 VM11D VM2D VM12D VN sky130_fd_pr__nfet_01v8 ad=0p pd=0u as=0p ps=0u w=4e+06u l=6e+06u
X78 a_19136_7699# VM8D VM8D VP sky130_fd_pr__pfet_01v8 ad=0p pd=0u as=0p ps=0u w=4e+06u l=200000u
X79 VM12G VM14D VP VM12G sky130_fd_pr__nfet_01v8_lvt ad=0p pd=0u as=0p ps=0u w=4e+06u l=150000u
X80 VP VM8D a_19136_919# VP sky130_fd_pr__pfet_01v8 ad=0p pd=0u as=0p ps=0u w=4e+06u l=1e+06u
X81 VP VM8D a_19136_919# VP sky130_fd_pr__pfet_01v8 ad=0p pd=0u as=0p ps=0u w=4e+06u l=1e+06u
X82 a_19136_919# VM8D VP VP sky130_fd_pr__pfet_01v8 ad=0p pd=0u as=0p ps=0u w=4e+06u l=1e+06u
X83 VN VM12G VM12D VN sky130_fd_pr__nfet_01v8 ad=0p pd=0u as=0p ps=0u w=4e+06u l=6e+06u
X84 a_19136_919# VM8D VP VP sky130_fd_pr__pfet_01v8 ad=0p pd=0u as=0p ps=0u w=4e+06u l=1e+06u
X85 a_19136_919# VM8D VM14D VP sky130_fd_pr__pfet_01v8 ad=0p pd=0u as=0p ps=0u w=4e+06u l=200000u
X86 VP VM14D VM12G VM12G sky130_fd_pr__nfet_01v8_lvt ad=0p pd=0u as=0p ps=0u w=4e+06u l=150000u
X87 a_19136_919# VM8D VM14D VP sky130_fd_pr__pfet_01v8 ad=0p pd=0u as=0p ps=0u w=4e+06u l=200000u
X88 VM12D VM2D VM11D VN sky130_fd_pr__nfet_01v8 ad=0p pd=0u as=0p ps=0u w=4e+06u l=6e+06u
X89 a_216_n2258# VM22D I_ref VN sky130_fd_pr__nfet_01v8_lvt ad=0p pd=0u as=0p ps=0u w=4e+06u l=150000u
X90 VM8D VM9D VM11D VM11D sky130_fd_pr__nfet_01v8_lvt ad=0p pd=0u as=0p ps=0u w=4e+06u l=1e+06u
X91 VM11D VM2D VM12D VN sky130_fd_pr__nfet_01v8 ad=0p pd=0u as=0p ps=0u w=4e+06u l=6e+06u
X92 VM2D VM9D VM9D VM2D sky130_fd_pr__nfet_01v8_lvt ad=0p pd=0u as=0p ps=0u w=4e+06u l=1e+06u
X93 VP VM8D a_19136_7699# VP sky130_fd_pr__pfet_01v8 ad=0p pd=0u as=0p ps=0u w=4e+06u l=1e+06u
X94 a_19136_9959# VM8D VP VP sky130_fd_pr__pfet_01v8 ad=0p pd=0u as=0p ps=0u w=4e+06u l=1e+06u
X95 VP VM14D VM12G VM12G sky130_fd_pr__nfet_01v8_lvt ad=0p pd=0u as=0p ps=0u w=4e+06u l=150000u
X96 a_19136_919# VM8D VP VP sky130_fd_pr__pfet_01v8 ad=0p pd=0u as=0p ps=0u w=4e+06u l=1e+06u
X97 a_19136_919# VM8D VP VP sky130_fd_pr__pfet_01v8 ad=0p pd=0u as=0p ps=0u w=4e+06u l=1e+06u
X98 VM12D VM2D VM11D VN sky130_fd_pr__nfet_01v8 ad=0p pd=0u as=0p ps=0u w=4e+06u l=6e+06u
X99 VM9D VM9D VM2D VM2D sky130_fd_pr__nfet_01v8_lvt ad=0p pd=0u as=0p ps=0u w=4e+06u l=1e+06u
X100 VM12G VM14D VP VM12G sky130_fd_pr__nfet_01v8_lvt ad=0p pd=0u as=0p ps=0u w=4e+06u l=150000u
X101 VP VM8D a_19136_919# VP sky130_fd_pr__pfet_01v8 ad=0p pd=0u as=0p ps=0u w=4e+06u l=1e+06u
X102 VN VP sky130_fd_pr__cap_mim_m3_2 l=3e+07u w=3e+07u
X103 VP VM8D a_19136_n1351# VP sky130_fd_pr__pfet_01v8 ad=0p pd=0u as=0p ps=0u w=4e+06u l=1e+06u
X104 a_216_n2258# VM22D I_ref VN sky130_fd_pr__nfet_01v8_lvt ad=0p pd=0u as=0p ps=0u w=4e+06u l=150000u
X105 a_11158_13910# VM11D VN VN sky130_fd_pr__nfet_01v8_lvt ad=0p pd=0u as=0p ps=0u w=4e+06u l=200000u
X106 VP VM8D a_19136_9959# VP sky130_fd_pr__pfet_01v8 ad=0p pd=0u as=0p ps=0u w=4e+06u l=1e+06u
X107 VM12D VM2D VM11D VN sky130_fd_pr__nfet_01v8 ad=0p pd=0u as=0p ps=0u w=4e+06u l=6e+06u
X108 VM9D VM9D VM2D VM2D sky130_fd_pr__nfet_01v8_lvt ad=0p pd=0u as=0p ps=0u w=4e+06u l=1e+06u
X109 a_19136_9959# VM8D VM9D VP sky130_fd_pr__pfet_01v8 ad=0p pd=0u as=0p ps=0u w=4e+06u l=200000u
X110 a_19706_n4664# a_20236_n2232# VN sky130_fd_pr__res_xhigh_po_1p41 l=1e+07u
X111 a_11158_13910# VM11D VN VN sky130_fd_pr__nfet_01v8_lvt ad=0p pd=0u as=0p ps=0u w=4e+06u l=200000u
X112 a_18646_n4664# a_216_n2258# VN sky130_fd_pr__res_xhigh_po_1p41 l=1e+07u
X113 VP VM8D a_19136_919# VP sky130_fd_pr__pfet_01v8 ad=0p pd=0u as=0p ps=0u w=4e+06u l=1e+06u
X114 I_ref VM22D a_216_n2258# VN sky130_fd_pr__nfet_01v8_lvt ad=0p pd=0u as=0p ps=0u w=4e+06u l=150000u
X115 VM12D VM2D VM11D VN sky130_fd_pr__nfet_01v8 ad=0p pd=0u as=0p ps=0u w=4e+06u l=6e+06u
X116 VM11D VM9D VM8D VM11D sky130_fd_pr__nfet_01v8_lvt ad=0p pd=0u as=0p ps=0u w=4e+06u l=1e+06u
X117 VM11D VM2D VM12D VN sky130_fd_pr__nfet_01v8 ad=0p pd=0u as=0p ps=0u w=4e+06u l=6e+06u
X118 VM12D VM12G VN VN sky130_fd_pr__nfet_01v8 ad=0p pd=0u as=0p ps=0u w=4e+06u l=6e+06u
X119 VM2D VM9D VM9D VM2D sky130_fd_pr__nfet_01v8_lvt ad=0p pd=0u as=0p ps=0u w=4e+06u l=1e+06u
X120 VM12G VM14D VP VM12G sky130_fd_pr__nfet_01v8_lvt ad=0p pd=0u as=0p ps=0u w=4e+06u l=150000u
X121 VM11D VM9D VM8D VM11D sky130_fd_pr__nfet_01v8_lvt ad=0p pd=0u as=0p ps=0u w=4e+06u l=1e+06u
X122 VM11D VM9D VM8D VM11D sky130_fd_pr__nfet_01v8_lvt ad=0p pd=0u as=0p ps=0u w=4e+06u l=1e+06u
X123 VM12D VM2D VM11D VN sky130_fd_pr__nfet_01v8 ad=0p pd=0u as=0p ps=0u w=4e+06u l=6e+06u
X124 VM11D VM2D VM12D VN sky130_fd_pr__nfet_01v8 ad=0p pd=0u as=0p ps=0u w=4e+06u l=6e+06u
X125 a_19136_919# VM8D VP VP sky130_fd_pr__pfet_01v8 ad=0p pd=0u as=0p ps=0u w=4e+06u l=1e+06u
X126 VM2D VM9D VM9D VM2D sky130_fd_pr__nfet_01v8_lvt ad=0p pd=0u as=0p ps=0u w=4e+06u l=1e+06u
X127 VP VM14D VM12G VM12G sky130_fd_pr__nfet_01v8_lvt ad=0p pd=0u as=0p ps=0u w=4e+06u l=150000u
X128 a_19136_919# VM8D VM14D VP sky130_fd_pr__pfet_01v8 ad=0p pd=0u as=0p ps=0u w=4e+06u l=200000u
X129 VM8D VM9D VM11D VM11D sky130_fd_pr__nfet_01v8_lvt ad=0p pd=0u as=0p ps=0u w=4e+06u l=1e+06u
X130 VP VM8D a_19136_9959# VP sky130_fd_pr__pfet_01v8 ad=0p pd=0u as=0p ps=0u w=4e+06u l=1e+06u
X131 VM11D VM2D VM12D VN sky130_fd_pr__nfet_01v8 ad=0p pd=0u as=0p ps=0u w=4e+06u l=6e+06u
X132 VP VM8D sky130_fd_pr__cap_mim_m3_1 l=2e+07u w=2e+07u
X133 VM11D VM2D VM12D VN sky130_fd_pr__nfet_01v8 ad=0p pd=0u as=0p ps=0u w=4e+06u l=6e+06u
X134 VM11D VM2D VM12D VN sky130_fd_pr__nfet_01v8 ad=0p pd=0u as=0p ps=0u w=4e+06u l=6e+06u
X135 VM8D VM9D VM11D VM11D sky130_fd_pr__nfet_01v8_lvt ad=0p pd=0u as=0p ps=0u w=4e+06u l=1e+06u
X136 VM12D VM2D VM11D VN sky130_fd_pr__nfet_01v8 ad=0p pd=0u as=0p ps=0u w=4e+06u l=6e+06u
X137 VP VM8D a_19136_7699# VP sky130_fd_pr__pfet_01v8 ad=0p pd=0u as=0p ps=0u w=4e+06u l=1e+06u
X138 a_19136_919# VM8D VP VP sky130_fd_pr__pfet_01v8 ad=0p pd=0u as=0p ps=0u w=4e+06u l=1e+06u
X139 VM11D VM2D VM12D VN sky130_fd_pr__nfet_01v8 ad=0p pd=0u as=0p ps=0u w=4e+06u l=6e+06u
X140 VM3D VM3G VN VN sky130_fd_pr__nfet_01v8 ad=0p pd=0u as=0p ps=0u w=4e+06u l=6e+06u
X141 VP VM8D a_19136_919# VP sky130_fd_pr__pfet_01v8 ad=0p pd=0u as=0p ps=0u w=4e+06u l=1e+06u
X142 I_ref VM22D a_216_n2258# VN sky130_fd_pr__nfet_01v8_lvt ad=0p pd=0u as=0p ps=0u w=4e+06u l=150000u
X143 a_216_n2258# VM22D I_ref VN sky130_fd_pr__nfet_01v8_lvt ad=0p pd=0u as=0p ps=0u w=4e+06u l=150000u
X144 VM11D VM2D VM12D VN sky130_fd_pr__nfet_01v8 ad=0p pd=0u as=0p ps=0u w=4e+06u l=6e+06u
X145 VP VM8D a_19136_919# VP sky130_fd_pr__pfet_01v8 ad=0p pd=0u as=0p ps=0u w=4e+06u l=1e+06u
X146 VM11D VM9D VM8D VM11D sky130_fd_pr__nfet_01v8_lvt ad=0p pd=0u as=0p ps=0u w=4e+06u l=1e+06u
X147 I_ref VM22D a_216_n2258# VN sky130_fd_pr__nfet_01v8_lvt ad=0p pd=0u as=0p ps=0u w=4e+06u l=150000u
X148 a_216_n2258# VM22D I_ref VN sky130_fd_pr__nfet_01v8_lvt ad=0p pd=0u as=0p ps=0u w=4e+06u l=150000u
X149 I_ref VM22D a_216_n2258# VN sky130_fd_pr__nfet_01v8_lvt ad=0p pd=0u as=0p ps=0u w=4e+06u l=150000u
X150 VM12D VM2D VM11D VN sky130_fd_pr__nfet_01v8 ad=0p pd=0u as=0p ps=0u w=4e+06u l=6e+06u
X151 VP VM14D VM12G VM12G sky130_fd_pr__nfet_01v8_lvt ad=0p pd=0u as=0p ps=0u w=4e+06u l=150000u
X152 VM2D VM2D VN VN sky130_fd_pr__nfet_01v8 ad=0p pd=0u as=0p ps=0u w=4e+06u l=6e+06u
X153 VM11D VM2D VM12D VN sky130_fd_pr__nfet_01v8 ad=0p pd=0u as=0p ps=0u w=4e+06u l=6e+06u
X154 a_19136_n1351# VM8D VM22D VP sky130_fd_pr__pfet_01v8 ad=0p pd=0u as=0p ps=0u w=4e+06u l=200000u
X155 I_ref VM22D a_216_n2258# VN sky130_fd_pr__nfet_01v8_lvt ad=0p pd=0u as=0p ps=0u w=4e+06u l=150000u
X156 a_216_n2258# VM22D I_ref VN sky130_fd_pr__nfet_01v8_lvt ad=0p pd=0u as=0p ps=0u w=4e+06u l=150000u
X157 I_ref VM22D a_216_n2258# VN sky130_fd_pr__nfet_01v8_lvt ad=0p pd=0u as=0p ps=0u w=4e+06u l=150000u
X158 VM12D VM2D VM11D VN sky130_fd_pr__nfet_01v8 ad=0p pd=0u as=0p ps=0u w=4e+06u l=6e+06u
X159 VM12D VM2D VM11D VN sky130_fd_pr__nfet_01v8 ad=0p pd=0u as=0p ps=0u w=4e+06u l=6e+06u
X160 a_19136_919# VM8D VP VP sky130_fd_pr__pfet_01v8 ad=0p pd=0u as=0p ps=0u w=4e+06u l=1e+06u
X161 a_19136_919# VM8D VP VP sky130_fd_pr__pfet_01v8 ad=0p pd=0u as=0p ps=0u w=4e+06u l=1e+06u
X162 VM12G VM14D VP VM12G sky130_fd_pr__nfet_01v8_lvt ad=0p pd=0u as=0p ps=0u w=4e+06u l=150000u
X163 VN VM2D VM2D VN sky130_fd_pr__nfet_01v8 ad=0p pd=0u as=0p ps=0u w=4e+06u l=6e+06u
X164 I_ref VM22D a_216_n2258# VN sky130_fd_pr__nfet_01v8_lvt ad=0p pd=0u as=0p ps=0u w=4e+06u l=150000u
X165 a_216_n2258# VM22D I_ref VN sky130_fd_pr__nfet_01v8_lvt ad=0p pd=0u as=0p ps=0u w=4e+06u l=150000u
X166 VN VM2D VM2D VN sky130_fd_pr__nfet_01v8 ad=0p pd=0u as=0p ps=0u w=4e+06u l=6e+06u
X167 a_19136_n1351# VM8D VP VP sky130_fd_pr__pfet_01v8 ad=0p pd=0u as=0p ps=0u w=4e+06u l=1e+06u
X168 VP VM8D a_19136_919# VP sky130_fd_pr__pfet_01v8 ad=0p pd=0u as=0p ps=0u w=4e+06u l=1e+06u
X169 VN VM2D VM2D VN sky130_fd_pr__nfet_01v8 ad=0p pd=0u as=0p ps=0u w=4e+06u l=6e+06u
X170 VM12D VM2D VM11D VN sky130_fd_pr__nfet_01v8 ad=0p pd=0u as=0p ps=0u w=4e+06u l=6e+06u
X171 VM11D VM2D VM12D VN sky130_fd_pr__nfet_01v8 ad=0p pd=0u as=0p ps=0u w=4e+06u l=6e+06u
X172 VN VM3G VM3D VN sky130_fd_pr__nfet_01v8 ad=0p pd=0u as=0p ps=0u w=4e+06u l=6e+06u
X173 VP VM8D a_19136_919# VP sky130_fd_pr__pfet_01v8 ad=0p pd=0u as=0p ps=0u w=4e+06u l=1e+06u
X174 VP VM8D a_19136_9959# VP sky130_fd_pr__pfet_01v8 ad=0p pd=0u as=0p ps=0u w=4e+06u l=1e+06u
X175 a_19136_7699# VM8D VP VP sky130_fd_pr__pfet_01v8 ad=0p pd=0u as=0p ps=0u w=4e+06u l=1e+06u
X176 VP VM8D a_19136_919# VP sky130_fd_pr__pfet_01v8 ad=0p pd=0u as=0p ps=0u w=4e+06u l=1e+06u
X177 a_19136_919# VM8D VM14D VP sky130_fd_pr__pfet_01v8 ad=0p pd=0u as=0p ps=0u w=4e+06u l=200000u
X178 VM12D VM2D VM11D VN sky130_fd_pr__nfet_01v8 ad=0p pd=0u as=0p ps=0u w=4e+06u l=6e+06u
X179 VN VM2D VM2D VN sky130_fd_pr__nfet_01v8 ad=0p pd=0u as=0p ps=0u w=4e+06u l=6e+06u
X180 VP VM8D a_19136_n1351# VP sky130_fd_pr__pfet_01v8 ad=0p pd=0u as=0p ps=0u w=4e+06u l=1e+06u
X181 VN VM11D a_11158_13910# VN sky130_fd_pr__nfet_01v8_lvt ad=0p pd=0u as=0p ps=0u w=4e+06u l=200000u
X182 VM2D VM2D VN VN sky130_fd_pr__nfet_01v8 ad=0p pd=0u as=0p ps=0u w=4e+06u l=6e+06u
X183 a_19136_919# VM8D VM14D VP sky130_fd_pr__pfet_01v8 ad=0p pd=0u as=0p ps=0u w=4e+06u l=200000u
X184 VM12D VM2D VM11D VN sky130_fd_pr__nfet_01v8 ad=0p pd=0u as=0p ps=0u w=4e+06u l=6e+06u
X185 a_19136_919# VM8D VP VP sky130_fd_pr__pfet_01v8 ad=0p pd=0u as=0p ps=0u w=4e+06u l=1e+06u
X186 VM2D VM2D VN VN sky130_fd_pr__nfet_01v8 ad=0p pd=0u as=0p ps=0u w=4e+06u l=6e+06u
X187 VN VM2D VM2D VN sky130_fd_pr__nfet_01v8 ad=0p pd=0u as=0p ps=0u w=4e+06u l=6e+06u
X188 VM12G a_13386_4078# VN sky130_fd_pr__res_xhigh_po_1p41 l=1e+07u
X189 VM3D a_216_n2258# VM22D VN sky130_fd_pr__nfet_01v8 ad=0p pd=0u as=0p ps=0u w=4e+06u l=6e+06u
X190 VN VM11D a_11158_13910# VN sky130_fd_pr__nfet_01v8_lvt ad=0p pd=0u as=0p ps=0u w=4e+06u l=200000u
X191 a_19136_n1351# VM8D VP VP sky130_fd_pr__pfet_01v8 ad=0p pd=0u as=0p ps=0u w=4e+06u l=1e+06u
X192 VM9D VM9D VM2D VM2D sky130_fd_pr__nfet_01v8_lvt ad=0p pd=0u as=0p ps=0u w=4e+06u l=1e+06u
X193 VM8D VM9D VM11D VM11D sky130_fd_pr__nfet_01v8_lvt ad=0p pd=0u as=0p ps=0u w=4e+06u l=1e+06u
X194 VM12D VM2D VM11D VN sky130_fd_pr__nfet_01v8 ad=0p pd=0u as=0p ps=0u w=4e+06u l=6e+06u
X195 a_216_n2258# VM22D I_ref VN sky130_fd_pr__nfet_01v8_lvt ad=0p pd=0u as=0p ps=0u w=4e+06u l=150000u
X196 VM12D VM2D VM11D VN sky130_fd_pr__nfet_01v8 ad=0p pd=0u as=0p ps=0u w=4e+06u l=6e+06u
X197 VM9D VM9D VM2D VM2D sky130_fd_pr__nfet_01v8_lvt ad=0p pd=0u as=0p ps=0u w=4e+06u l=1e+06u
X198 VP VM8D a_19136_919# VP sky130_fd_pr__pfet_01v8 ad=0p pd=0u as=0p ps=0u w=4e+06u l=1e+06u
X199 VP VM8D a_19136_919# VP sky130_fd_pr__pfet_01v8 ad=0p pd=0u as=0p ps=0u w=4e+06u l=1e+06u
X200 VM22D a_216_n2258# VM3D VN sky130_fd_pr__nfet_01v8 ad=0p pd=0u as=0p ps=0u w=4e+06u l=6e+06u
X201 VM11D VM2D VM12D VN sky130_fd_pr__nfet_01v8 ad=0p pd=0u as=0p ps=0u w=4e+06u l=6e+06u
X202 VM11D VM2D VM12D VN sky130_fd_pr__nfet_01v8 ad=0p pd=0u as=0p ps=0u w=4e+06u l=6e+06u
X203 VP VM8D a_19136_919# VP sky130_fd_pr__pfet_01v8 ad=0p pd=0u as=0p ps=0u w=4e+06u l=1e+06u
X204 VM11D VM9D VM8D VM11D sky130_fd_pr__nfet_01v8_lvt ad=0p pd=0u as=0p ps=0u w=4e+06u l=1e+06u
X205 VP VM14D VM12G VM12G sky130_fd_pr__nfet_01v8_lvt ad=0p pd=0u as=0p ps=0u w=4e+06u l=150000u
X206 VN VM3G VM3D VN sky130_fd_pr__nfet_01v8 ad=0p pd=0u as=0p ps=0u w=4e+06u l=6e+06u
X207 VM11D VM2D VM12D VN sky130_fd_pr__nfet_01v8 ad=0p pd=0u as=0p ps=0u w=4e+06u l=6e+06u
X208 a_17176_1646# a_17706_4078# VN sky130_fd_pr__res_xhigh_po_1p41 l=1e+07u
X209 VM8D VM9D VM11D VM11D sky130_fd_pr__nfet_01v8_lvt ad=0p pd=0u as=0p ps=0u w=4e+06u l=1e+06u
X210 VM12G VM14D VP VM12G sky130_fd_pr__nfet_01v8_lvt ad=0p pd=0u as=0p ps=0u w=4e+06u l=150000u
X211 a_19136_919# VM8D VP VP sky130_fd_pr__pfet_01v8 ad=0p pd=0u as=0p ps=0u w=4e+06u l=1e+06u
X212 VP VM11D a_11158_13910# VP sky130_fd_pr__pfet_01v8 ad=0p pd=0u as=0p ps=0u w=500000u l=2e+06u
X213 VP VM8D a_19136_919# VP sky130_fd_pr__pfet_01v8 ad=0p pd=0u as=0p ps=0u w=4e+06u l=1e+06u
X214 VM2D VM9D VM9D VM2D sky130_fd_pr__nfet_01v8_lvt ad=0p pd=0u as=0p ps=0u w=4e+06u l=1e+06u
X215 a_19136_919# VM8D VM14D VP sky130_fd_pr__pfet_01v8 ad=0p pd=0u as=0p ps=0u w=4e+06u l=200000u
X216 VM12D VM2D VM11D VN sky130_fd_pr__nfet_01v8 ad=0p pd=0u as=0p ps=0u w=4e+06u l=6e+06u
X217 VM8D a_11158_13910# VN VN sky130_fd_pr__nfet_01v8 ad=0p pd=0u as=0p ps=0u w=500000u l=2e+06u
X218 VP VM8D a_19136_919# VP sky130_fd_pr__pfet_01v8 ad=0p pd=0u as=0p ps=0u w=4e+06u l=1e+06u
X219 a_19136_7699# VM8D VP VP sky130_fd_pr__pfet_01v8 ad=0p pd=0u as=0p ps=0u w=4e+06u l=1e+06u
X220 VN VM2D VM2D VN sky130_fd_pr__nfet_01v8 ad=0p pd=0u as=0p ps=0u w=4e+06u l=6e+06u
X221 VM2D VM2D VN VN sky130_fd_pr__nfet_01v8 ad=0p pd=0u as=0p ps=0u w=4e+06u l=6e+06u
X222 I_ref VM22D a_216_n2258# VN sky130_fd_pr__nfet_01v8_lvt ad=0p pd=0u as=0p ps=0u w=4e+06u l=150000u
X223 VM11D VM2D VM12D VN sky130_fd_pr__nfet_01v8 ad=0p pd=0u as=0p ps=0u w=4e+06u l=6e+06u
X224 VM2D VM9D VM9D VM2D sky130_fd_pr__nfet_01v8_lvt ad=0p pd=0u as=0p ps=0u w=4e+06u l=1e+06u
X225 VM8D VM9D VM11D VM11D sky130_fd_pr__nfet_01v8_lvt ad=0p pd=0u as=0p ps=0u w=4e+06u l=1e+06u
X226 VM2D VM2D VN VN sky130_fd_pr__nfet_01v8 ad=0p pd=0u as=0p ps=0u w=4e+06u l=6e+06u
X227 a_19136_919# VM8D VM14D VP sky130_fd_pr__pfet_01v8 ad=0p pd=0u as=0p ps=0u w=4e+06u l=200000u
X228 VP VM8D a_19136_919# VP sky130_fd_pr__pfet_01v8 ad=0p pd=0u as=0p ps=0u w=4e+06u l=1e+06u
X229 VN VM2D VM2D VN sky130_fd_pr__nfet_01v8 ad=0p pd=0u as=0p ps=0u w=4e+06u l=6e+06u
X230 VM2D VM9D VM9D VM2D sky130_fd_pr__nfet_01v8_lvt ad=0p pd=0u as=0p ps=0u w=4e+06u l=1e+06u
X231 VP VM8D a_19136_7699# VP sky130_fd_pr__pfet_01v8 ad=0p pd=0u as=0p ps=0u w=4e+06u l=1e+06u
X232 VM2D VM2D VN VN sky130_fd_pr__nfet_01v8 ad=0p pd=0u as=0p ps=0u w=4e+06u l=6e+06u
X233 a_19136_919# VM8D VP VP sky130_fd_pr__pfet_01v8 ad=0p pd=0u as=0p ps=0u w=4e+06u l=1e+06u
X234 a_216_n2258# VM22D I_ref VN sky130_fd_pr__nfet_01v8_lvt ad=0p pd=0u as=0p ps=0u w=4e+06u l=150000u
X235 VM2D VM2D VN VN sky130_fd_pr__nfet_01v8 ad=0p pd=0u as=0p ps=0u w=4e+06u l=6e+06u
X236 VM11D VM2D VM12D VN sky130_fd_pr__nfet_01v8 ad=0p pd=0u as=0p ps=0u w=4e+06u l=6e+06u
X237 a_19136_919# VM8D VP VP sky130_fd_pr__pfet_01v8 ad=0p pd=0u as=0p ps=0u w=4e+06u l=1e+06u
X238 VN VM2D VM2D VN sky130_fd_pr__nfet_01v8 ad=0p pd=0u as=0p ps=0u w=4e+06u l=6e+06u
X239 VN VP sky130_fd_pr__cap_mim_m3_2 l=3e+07u w=3e+07u
X240 VN VM2D VM2D VN sky130_fd_pr__nfet_01v8 ad=0p pd=0u as=0p ps=0u w=4e+06u l=6e+06u
X241 VM2D VM2D VN VN sky130_fd_pr__nfet_01v8 ad=0p pd=0u as=0p ps=0u w=4e+06u l=6e+06u
X242 VM9D VM9D VM2D VM2D sky130_fd_pr__nfet_01v8_lvt ad=0p pd=0u as=0p ps=0u w=4e+06u l=1e+06u
X243 VM11D VM2D VM12D VN sky130_fd_pr__nfet_01v8 ad=0p pd=0u as=0p ps=0u w=4e+06u l=6e+06u
X244 VP VM8D a_19136_919# VP sky130_fd_pr__pfet_01v8 ad=0p pd=0u as=0p ps=0u w=4e+06u l=1e+06u
X245 VM11D VM2D VM12D VN sky130_fd_pr__nfet_01v8 ad=0p pd=0u as=0p ps=0u w=4e+06u l=6e+06u
X246 VM9D VM9D VM2D VM2D sky130_fd_pr__nfet_01v8_lvt ad=0p pd=0u as=0p ps=0u w=4e+06u l=1e+06u
X247 VM11D VM2D VM12D VN sky130_fd_pr__nfet_01v8 ad=0p pd=0u as=0p ps=0u w=4e+06u l=6e+06u
X248 VM12D VM2D VM11D VN sky130_fd_pr__nfet_01v8 ad=0p pd=0u as=0p ps=0u w=4e+06u l=6e+06u
X249 VM11D VM9D VM8D VM11D sky130_fd_pr__nfet_01v8_lvt ad=0p pd=0u as=0p ps=0u w=4e+06u l=1e+06u
X250 VM12D VM2D VM11D VN sky130_fd_pr__nfet_01v8 ad=0p pd=0u as=0p ps=0u w=4e+06u l=6e+06u
X251 VP VM8D a_19136_n1351# VP sky130_fd_pr__pfet_01v8 ad=0p pd=0u as=0p ps=0u w=4e+06u l=1e+06u
X252 VM12D VM2D VM11D VN sky130_fd_pr__nfet_01v8 ad=0p pd=0u as=0p ps=0u w=4e+06u l=6e+06u
X253 VM11D VM2D VM12D VN sky130_fd_pr__nfet_01v8 ad=0p pd=0u as=0p ps=0u w=4e+06u l=6e+06u
X254 VP VM8D a_19136_7699# VP sky130_fd_pr__pfet_01v8 ad=0p pd=0u as=0p ps=0u w=4e+06u l=1e+06u
X255 VP VM8D a_19136_919# VP sky130_fd_pr__pfet_01v8 ad=0p pd=0u as=0p ps=0u w=4e+06u l=1e+06u
X256 VM12D VM2D VM11D VN sky130_fd_pr__nfet_01v8 ad=0p pd=0u as=0p ps=0u w=4e+06u l=6e+06u
X257 VM12D VM2D VM11D VN sky130_fd_pr__nfet_01v8 ad=0p pd=0u as=0p ps=0u w=4e+06u l=6e+06u
X258 VP VM8D a_19136_919# VP sky130_fd_pr__pfet_01v8 ad=0p pd=0u as=0p ps=0u w=4e+06u l=1e+06u
X259 VN VM11D a_11158_13910# VN sky130_fd_pr__nfet_01v8_lvt ad=0p pd=0u as=0p ps=0u w=4e+06u l=200000u
X260 VN VM12G VM14D VN sky130_fd_pr__nfet_01v8 ad=0p pd=0u as=0p ps=0u w=4e+06u l=6e+06u
X261 VN VM2D VM2D VN sky130_fd_pr__nfet_01v8 ad=0p pd=0u as=0p ps=0u w=4e+06u l=6e+06u
X262 a_19136_9959# VM8D VP VP sky130_fd_pr__pfet_01v8 ad=0p pd=0u as=0p ps=0u w=4e+06u l=1e+06u
X263 a_16116_1646# a_16646_4078# VN sky130_fd_pr__res_xhigh_po_1p41 l=1e+07u
X264 VM2D VM9D VM9D VM2D sky130_fd_pr__nfet_01v8_lvt ad=0p pd=0u as=0p ps=0u w=4e+06u l=1e+06u
X265 VM3D a_216_n2258# VM22D VN sky130_fd_pr__nfet_01v8 ad=0p pd=0u as=0p ps=0u w=4e+06u l=6e+06u
X266 VM11D VM9D VM8D VM11D sky130_fd_pr__nfet_01v8_lvt ad=0p pd=0u as=0p ps=0u w=4e+06u l=1e+06u
X267 VP VM14D VM12G VM12G sky130_fd_pr__nfet_01v8_lvt ad=0p pd=0u as=0p ps=0u w=4e+06u l=150000u
X268 a_19136_919# VM8D VP VP sky130_fd_pr__pfet_01v8 ad=0p pd=0u as=0p ps=0u w=4e+06u l=1e+06u
X269 VP VM8D a_19136_n1351# VP sky130_fd_pr__pfet_01v8 ad=0p pd=0u as=0p ps=0u w=4e+06u l=1e+06u
X270 VM3D a_216_n2258# VM22D VN sky130_fd_pr__nfet_01v8 ad=0p pd=0u as=0p ps=0u w=4e+06u l=6e+06u
X271 VM11D VM2D VM12D VN sky130_fd_pr__nfet_01v8 ad=0p pd=0u as=0p ps=0u w=4e+06u l=6e+06u
X272 VM12D VM2D VM11D VN sky130_fd_pr__nfet_01v8 ad=0p pd=0u as=0p ps=0u w=4e+06u l=6e+06u
X273 VM3G a_14526_4078# VN sky130_fd_pr__res_xhigh_po_1p41 l=1e+07u
X274 VP VM8D a_19136_919# VP sky130_fd_pr__pfet_01v8 ad=0p pd=0u as=0p ps=0u w=4e+06u l=1e+06u
X275 VM12D VM2D VM11D VN sky130_fd_pr__nfet_01v8 ad=0p pd=0u as=0p ps=0u w=4e+06u l=6e+06u
X276 a_19136_919# VM8D VM14D VP sky130_fd_pr__pfet_01v8 ad=0p pd=0u as=0p ps=0u w=4e+06u l=200000u
X277 VP VM8D a_19136_7699# VP sky130_fd_pr__pfet_01v8 ad=0p pd=0u as=0p ps=0u w=4e+06u l=1e+06u
X278 VM3D a_216_n2258# VM22D VN sky130_fd_pr__nfet_01v8 ad=0p pd=0u as=0p ps=0u w=4e+06u l=6e+06u
X279 VM22D a_216_n2258# VM3D VN sky130_fd_pr__nfet_01v8 ad=0p pd=0u as=0p ps=0u w=4e+06u l=6e+06u
X280 VP VM8D a_19136_919# VP sky130_fd_pr__pfet_01v8 ad=0p pd=0u as=0p ps=0u w=4e+06u l=1e+06u
X281 a_19136_919# VM8D VP VP sky130_fd_pr__pfet_01v8 ad=0p pd=0u as=0p ps=0u w=4e+06u l=1e+06u
X282 VN VM11D a_11158_13910# VN sky130_fd_pr__nfet_01v8_lvt ad=0p pd=0u as=0p ps=0u w=4e+06u l=200000u
X283 VP VM8D a_19136_919# VP sky130_fd_pr__pfet_01v8 ad=0p pd=0u as=0p ps=0u w=4e+06u l=1e+06u
X284 VM22D a_216_n2258# VM3D VN sky130_fd_pr__nfet_01v8 ad=0p pd=0u as=0p ps=0u w=4e+06u l=6e+06u
X285 VP VM8D a_19136_919# VP sky130_fd_pr__pfet_01v8 ad=0p pd=0u as=0p ps=0u w=4e+06u l=1e+06u
X286 VN VM11D a_11158_13910# VN sky130_fd_pr__nfet_01v8_lvt ad=0p pd=0u as=0p ps=0u w=4e+06u l=200000u
X287 VN VM2D VM2D VN sky130_fd_pr__nfet_01v8 ad=0p pd=0u as=0p ps=0u w=4e+06u l=6e+06u
X288 a_19136_9959# VM8D VM9D VP sky130_fd_pr__pfet_01v8 ad=0p pd=0u as=0p ps=0u w=4e+06u l=200000u
X289 VN a_17706_4078# VN sky130_fd_pr__res_xhigh_po_1p41 l=1e+07u
X290 VP VM8D a_19136_919# VP sky130_fd_pr__pfet_01v8 ad=0p pd=0u as=0p ps=0u w=4e+06u l=1e+06u
X291 VM9D VM9D VM2D VM2D sky130_fd_pr__nfet_01v8_lvt ad=0p pd=0u as=0p ps=0u w=4e+06u l=1e+06u
X292 VN VM2D VM2D VN sky130_fd_pr__nfet_01v8 ad=0p pd=0u as=0p ps=0u w=4e+06u l=6e+06u
X293 VM14D VM12G VN VN sky130_fd_pr__nfet_01v8 ad=0p pd=0u as=0p ps=0u w=4e+06u l=6e+06u
X294 VM11D VM2D VM12D VN sky130_fd_pr__nfet_01v8 ad=0p pd=0u as=0p ps=0u w=4e+06u l=6e+06u
X295 a_19136_919# VM8D VP VP sky130_fd_pr__pfet_01v8 ad=0p pd=0u as=0p ps=0u w=4e+06u l=1e+06u
X296 VM2D VM2D VN VN sky130_fd_pr__nfet_01v8 ad=0p pd=0u as=0p ps=0u w=4e+06u l=6e+06u
X297 VM8D VM9D VM11D VM11D sky130_fd_pr__nfet_01v8_lvt ad=0p pd=0u as=0p ps=0u w=4e+06u l=1e+06u
X298 a_19136_9959# VM8D VP VP sky130_fd_pr__pfet_01v8 ad=0p pd=0u as=0p ps=0u w=4e+06u l=1e+06u
X299 VP VM8D a_19136_7699# VP sky130_fd_pr__pfet_01v8 ad=0p pd=0u as=0p ps=0u w=4e+06u l=1e+06u
X300 a_19136_919# VM8D VP VP sky130_fd_pr__pfet_01v8 ad=0p pd=0u as=0p ps=0u w=4e+06u l=1e+06u
X301 a_16116_1646# a_15586_4078# VN sky130_fd_pr__res_xhigh_po_1p41 l=1e+07u
X302 VM2D VM2D VN VN sky130_fd_pr__nfet_01v8 ad=0p pd=0u as=0p ps=0u w=4e+06u l=6e+06u
X303 VP VM8D a_19136_919# VP sky130_fd_pr__pfet_01v8 ad=0p pd=0u as=0p ps=0u w=4e+06u l=1e+06u
X304 a_216_n2258# VM22D I_ref VN sky130_fd_pr__nfet_01v8_lvt ad=0p pd=0u as=0p ps=0u w=4e+06u l=150000u
X305 VM12D VM2D VM11D VN sky130_fd_pr__nfet_01v8 ad=0p pd=0u as=0p ps=0u w=4e+06u l=6e+06u
X306 VM11D VM2D VM12D VN sky130_fd_pr__nfet_01v8 ad=0p pd=0u as=0p ps=0u w=4e+06u l=6e+06u
X307 VM2D VM2D VN VN sky130_fd_pr__nfet_01v8 ad=0p pd=0u as=0p ps=0u w=4e+06u l=6e+06u
X308 VP VM8D a_19136_919# VP sky130_fd_pr__pfet_01v8 ad=0p pd=0u as=0p ps=0u w=4e+06u l=1e+06u
X309 VM11D VM9D VM8D VM11D sky130_fd_pr__nfet_01v8_lvt ad=0p pd=0u as=0p ps=0u w=4e+06u l=1e+06u
X310 a_15056_1646# a_15586_4078# VN sky130_fd_pr__res_xhigh_po_1p41 l=1e+07u
X311 VM2D VM2D VN VN sky130_fd_pr__nfet_01v8 ad=0p pd=0u as=0p ps=0u w=4e+06u l=6e+06u
X312 VP VM14D VM12G VM12G sky130_fd_pr__nfet_01v8_lvt ad=0p pd=0u as=0p ps=0u w=4e+06u l=150000u
X313 a_19136_919# VM8D VM14D VP sky130_fd_pr__pfet_01v8 ad=0p pd=0u as=0p ps=0u w=4e+06u l=200000u
X314 VP VM8D a_19136_9959# VP sky130_fd_pr__pfet_01v8 ad=0p pd=0u as=0p ps=0u w=4e+06u l=1e+06u
X315 VP VM8D a_19136_9959# VP sky130_fd_pr__pfet_01v8 ad=0p pd=0u as=0p ps=0u w=4e+06u l=1e+06u
X316 VM11D VM2D VM12D VN sky130_fd_pr__nfet_01v8 ad=0p pd=0u as=0p ps=0u w=4e+06u l=6e+06u
X317 VN VM2D VM2D VN sky130_fd_pr__nfet_01v8 ad=0p pd=0u as=0p ps=0u w=4e+06u l=6e+06u
X318 VM12D VM2D VM11D VN sky130_fd_pr__nfet_01v8 ad=0p pd=0u as=0p ps=0u w=4e+06u l=6e+06u
X319 VN VM2D VM2D VN sky130_fd_pr__nfet_01v8 ad=0p pd=0u as=0p ps=0u w=4e+06u l=6e+06u