* NGSPICE file created from isource_flat.ext - technology: sky130A

.subckt isource_flat I_ref VP VN
X0 VM2D VM2D VN.t100 VN.t77 sky130_fd_pr__nfet_01v8 ad=3.132e+13p pd=2.3166e+08u as=0p ps=0u w=4e+06u l=6e+06u
X1 a_17176_1646.t1 a_16646_4078.t0 VN.t27 sky130_fd_pr__res_xhigh_po_1p41 l=1e+07u
X2 VP.t137 VM8D.t26 a_19136_919.t52 VP.t55 sky130_fd_pr__pfet_01v8 ad=0p pd=0u as=0p ps=0u w=4e+06u l=1e+06u
X3 VM2D VM2D VN.t99 VN.t75 sky130_fd_pr__nfet_01v8 ad=0p pd=0u as=0p ps=0u w=4e+06u l=6e+06u
X4 a_19136_n1351.t9 VM8D.t27 VP.t136 VP.t95 sky130_fd_pr__pfet_01v8 ad=0p pd=0u as=0p ps=0u w=4e+06u l=1e+06u
X5 a_15056_1646.t0 a_14526_4078.t1 VN.t4 sky130_fd_pr__res_xhigh_po_1p41 l=1e+07u
X6 VM2D VM9D.t38 VM9D.t39 VM2D sky130_fd_pr__nfet_01v8_lvt ad=0p pd=0u as=0p ps=0u w=4e+06u l=1e+06u
X7 a_19136_919.t1 VM8D.t28 VM14D.t13 VP.t81 sky130_fd_pr__pfet_01v8 ad=0p pd=0u as=0p ps=0u w=4e+06u l=200000u
X8 VP.t135 VM8D.t29 a_19136_919.t21 VP.t42 sky130_fd_pr__pfet_01v8 ad=0p pd=0u as=0p ps=0u w=4e+06u l=1e+06u
X9 VM2D VM9D.t36 VM9D.t37 VM2D sky130_fd_pr__nfet_01v8_lvt ad=0p pd=0u as=0p ps=0u w=4e+06u l=1e+06u
X10 VP.t134 VM8D.t30 a_19136_919.t20 VP.t42 sky130_fd_pr__pfet_01v8 ad=0p pd=0u as=0p ps=0u w=4e+06u l=1e+06u
X11 VM12D.t66 VM2D VM11D VN.t92 sky130_fd_pr__nfet_01v8 ad=0p pd=0u as=5.22e+13p ps=3.861e+08u w=4e+06u l=6e+06u
X12 VM12G VM14D.t14 VP.t1 VM12G sky130_fd_pr__nfet_01v8_lvt ad=1.32e+13p pd=8.66e+07u as=0p ps=0u w=4e+06u l=150000u
X13 a_19136_919.t18 VM8D.t31 VP.t133 VP.t26 sky130_fd_pr__pfet_01v8 ad=0p pd=0u as=0p ps=0u w=4e+06u l=1e+06u
X14 VP.t132 VM8D.t32 a_19136_n1351.t8 VP.t72 sky130_fd_pr__pfet_01v8 ad=0p pd=0u as=0p ps=0u w=4e+06u l=1e+06u
X15 a_11158_13910.t10 VM11D VN.t25 VN.t24 sky130_fd_pr__nfet_01v8_lvt ad=0p pd=0u as=0p ps=0u w=4e+06u l=200000u
X16 VM2D VM9D.t34 VM9D.t35 VM2D sky130_fd_pr__nfet_01v8_lvt ad=0p pd=0u as=0p ps=0u w=4e+06u l=1e+06u
X17 a_18646_n4664.t1 a_19176_n2232.t1 VN.t31 sky130_fd_pr__res_xhigh_po_1p41 l=1e+07u
X18 I_ref.t19 VM22D.t22 a_216_n2258.t3 VN.t59 sky130_fd_pr__nfet_01v8_lvt ad=0p pd=0u as=0p ps=0u w=4e+06u l=150000u
X19 VN.t98 VM2D VM2D VN.t71 sky130_fd_pr__nfet_01v8 ad=0p pd=0u as=0p ps=0u w=4e+06u l=6e+06u
X20 VM3D.t19 a_216_n2258.t21 VM22D.t10 VN.t36 sky130_fd_pr__nfet_01v8 ad=0p pd=0u as=0p ps=0u w=4e+06u l=6e+06u
X21 a_11158_13910.t9 VM11D VN.t23 VN.t22 sky130_fd_pr__nfet_01v8_lvt ad=0p pd=0u as=0p ps=0u w=4e+06u l=200000u
X22 VM8D.t16 VM9D.t42 VM11D VM11D sky130_fd_pr__nfet_01v8_lvt ad=0p pd=0u as=0p ps=0u w=4e+06u l=1e+06u
X23 VM3D.t18 a_216_n2258.t22 VM22D.t6 VN.t32 sky130_fd_pr__nfet_01v8 ad=0p pd=0u as=0p ps=0u w=4e+06u l=6e+06u
X24 VM11D VM2D VM12D.t65 VN.t28 sky130_fd_pr__nfet_01v8 ad=0p pd=0u as=0p ps=0u w=4e+06u l=6e+06u
X25 VM8D.t6 VM9D.t43 VM11D VM11D sky130_fd_pr__nfet_01v8_lvt ad=0p pd=0u as=0p ps=0u w=4e+06u l=1e+06u
X26 VM12G VM14D.t15 VP.t6 VM12G sky130_fd_pr__nfet_01v8_lvt ad=0p pd=0u as=0p ps=0u w=4e+06u l=150000u
X27 a_19136_919.t62 VM8D.t33 VP.t131 VP.t34 sky130_fd_pr__pfet_01v8 ad=0p pd=0u as=0p ps=0u w=4e+06u l=1e+06u
X28 VM11D VM2D VM12D.t64 VN.t36 sky130_fd_pr__nfet_01v8 ad=0p pd=0u as=0p ps=0u w=4e+06u l=6e+06u
X29 a_19136_7699.t9 VM8D.t34 VP.t130 VP.t30 sky130_fd_pr__pfet_01v8 ad=0p pd=0u as=0p ps=0u w=4e+06u l=1e+06u
X30 VP.t129 VM8D.t35 a_19136_919.t55 VP.t28 sky130_fd_pr__pfet_01v8 ad=0p pd=0u as=0p ps=0u w=4e+06u l=1e+06u
X31 VM11D VM2D VM12D.t63 VN.t66 sky130_fd_pr__nfet_01v8 ad=0p pd=0u as=0p ps=0u w=4e+06u l=6e+06u
X32 VM12D.t62 VM2D VM11D VN.t72 sky130_fd_pr__nfet_01v8 ad=0p pd=0u as=0p ps=0u w=4e+06u l=6e+06u
X33 VM11D VM9D.t44 VM8D.t1 VM11D sky130_fd_pr__nfet_01v8_lvt ad=0p pd=0u as=0p ps=0u w=4e+06u l=1e+06u
X34 VM11D VM9D.t45 VM8D.t17 VM11D sky130_fd_pr__nfet_01v8_lvt ad=0p pd=0u as=0p ps=0u w=4e+06u l=1e+06u
X35 a_19136_7699.t11 VM8D.t23 VM8D.t24 VP.t54 sky130_fd_pr__pfet_01v8 ad=0p pd=0u as=0p ps=0u w=4e+06u l=200000u
X36 VP.t20 VM14D.t16 VM12G VM12G sky130_fd_pr__nfet_01v8_lvt ad=0p pd=0u as=0p ps=0u w=4e+06u l=150000u
X37 VM11D VM2D VM12D.t61 VN.t32 sky130_fd_pr__nfet_01v8 ad=0p pd=0u as=0p ps=0u w=4e+06u l=6e+06u
X38 VP.t128 VM8D.t36 a_19136_919.t54 VP.t55 sky130_fd_pr__pfet_01v8 ad=0p pd=0u as=0p ps=0u w=4e+06u l=1e+06u
X39 a_19136_919.t29 VM8D.t37 VP.t127 VP.t46 sky130_fd_pr__pfet_01v8 ad=0p pd=0u as=0p ps=0u w=4e+06u l=1e+06u
X40 a_19136_919.t8 VM8D.t38 VM14D.t12 VP.t81 sky130_fd_pr__pfet_01v8 ad=0p pd=0u as=0p ps=0u w=4e+06u l=200000u
X41 VM2D VM2D VN.t97 VN.t66 sky130_fd_pr__nfet_01v8 ad=0p pd=0u as=0p ps=0u w=4e+06u l=6e+06u
X42 VM22D.t21 a_216_n2258.t23 VM3D.t17 VN.t36 sky130_fd_pr__nfet_01v8 ad=0p pd=0u as=0p ps=0u w=4e+06u l=6e+06u
X43 VM12D.t60 VM2D VM11D VN.t3 sky130_fd_pr__nfet_01v8 ad=0p pd=0u as=0p ps=0u w=4e+06u l=6e+06u
X44 VM22D.t9 a_216_n2258.t24 VM3D.t16 VN.t35 sky130_fd_pr__nfet_01v8 ad=0p pd=0u as=0p ps=0u w=4e+06u l=6e+06u
X45 a_19136_n1351.t11 VM8D.t39 VM22D.t19 VP.t99 sky130_fd_pr__pfet_01v8 ad=0p pd=0u as=0p ps=0u w=4e+06u l=200000u
X46 VN.t37 a_20236_n2232.t1 VN.t31 sky130_fd_pr__res_xhigh_po_1p41 l=1e+07u
X47 VM22D.t16 a_216_n2258.t25 VM3D.t15 VN.t32 sky130_fd_pr__nfet_01v8 ad=0p pd=0u as=0p ps=0u w=4e+06u l=6e+06u
X48 a_11158_13910.t8 VM11D VN.t21 VN.t20 sky130_fd_pr__nfet_01v8_lvt ad=0p pd=0u as=0p ps=0u w=4e+06u l=200000u
X49 VP.t0 VM14D.t17 VM12G VM12G sky130_fd_pr__nfet_01v8_lvt ad=0p pd=0u as=0p ps=0u w=4e+06u l=150000u
X50 VP.t126 VM8D.t40 a_19136_919.t28 VP.t42 sky130_fd_pr__pfet_01v8 ad=0p pd=0u as=0p ps=0u w=4e+06u l=1e+06u
X51 VM12G VM14D.t18 VP.t12 VM12G sky130_fd_pr__nfet_01v8_lvt ad=0p pd=0u as=0p ps=0u w=4e+06u l=150000u
X52 a_19136_919.t66 VM8D.t41 VP.t125 VP.t26 sky130_fd_pr__pfet_01v8 ad=0p pd=0u as=0p ps=0u w=4e+06u l=1e+06u
X53 VM3D.t14 a_216_n2258.t26 VM22D.t3 VN.t3 sky130_fd_pr__nfet_01v8 ad=0p pd=0u as=0p ps=0u w=4e+06u l=6e+06u
X54 VM12D.t59 VM2D VM11D VN.t26 sky130_fd_pr__nfet_01v8 ad=0p pd=0u as=0p ps=0u w=4e+06u l=6e+06u
X55 a_19136_9959.t9 VM8D.t42 VP.t124 VP.t30 sky130_fd_pr__pfet_01v8 ad=0p pd=0u as=0p ps=0u w=4e+06u l=1e+06u
X56 VM9D.t33 VM9D.t32 VM2D VM2D sky130_fd_pr__nfet_01v8_lvt ad=0p pd=0u as=0p ps=0u w=4e+06u l=1e+06u
X57 VM12G VM14D.t19 VP.t7 VM12G sky130_fd_pr__nfet_01v8_lvt ad=0p pd=0u as=0p ps=0u w=4e+06u l=150000u
X58 VP.t123 VM8D.t43 a_19136_919.t57 VP.t60 sky130_fd_pr__pfet_01v8 ad=0p pd=0u as=0p ps=0u w=4e+06u l=1e+06u
X59 VM3G.t1 a_13386_4078.t1 VN.t47 sky130_fd_pr__res_xhigh_po_1p41 l=1e+07u
X60 I_ref.t18 VM22D.t23 a_216_n2258.t1 VN.t38 sky130_fd_pr__nfet_01v8_lvt ad=0p pd=0u as=0p ps=0u w=4e+06u l=150000u
X61 VP.t122 VM8D.t44 a_19136_919.t56 VP.t55 sky130_fd_pr__pfet_01v8 ad=0p pd=0u as=0p ps=0u w=4e+06u l=1e+06u
X62 VP.t121 VM8D.t45 a_19136_919.t39 VP.t52 sky130_fd_pr__pfet_01v8 ad=0p pd=0u as=0p ps=0u w=4e+06u l=1e+06u
X63 VM3D.t13 a_216_n2258.t27 VM22D.t5 VN.t28 sky130_fd_pr__nfet_01v8 ad=0p pd=0u as=0p ps=0u w=4e+06u l=6e+06u
X64 a_19136_919.t15 VM8D.t46 VM14D.t11 VP.t41 sky130_fd_pr__pfet_01v8 ad=0p pd=0u as=0p ps=0u w=4e+06u l=200000u
X65 VM11D VM2D VM12D.t58 VN.t72 sky130_fd_pr__nfet_01v8 ad=0p pd=0u as=0p ps=0u w=4e+06u l=6e+06u
X66 VM11D VM2D VM12D.t57 VN.t72 sky130_fd_pr__nfet_01v8 ad=0p pd=0u as=0p ps=0u w=4e+06u l=6e+06u
X67 a_19706_n4664.t0 a_19176_n2232.t0 VN.t31 sky130_fd_pr__res_xhigh_po_1p41 l=1e+07u
X68 VM9D.t31 VM9D.t30 VM2D VM2D sky130_fd_pr__nfet_01v8_lvt ad=0p pd=0u as=0p ps=0u w=4e+06u l=1e+06u
X69 VM12D.t56 VM2D VM11D VN.t67 sky130_fd_pr__nfet_01v8 ad=0p pd=0u as=0p ps=0u w=4e+06u l=6e+06u
X70 a_19136_919.t38 VM8D.t47 VP.t120 VP.t34 sky130_fd_pr__pfet_01v8 ad=0p pd=0u as=0p ps=0u w=4e+06u l=1e+06u
X71 VM12D.t55 VM2D VM11D VN.t33 sky130_fd_pr__nfet_01v8 ad=0p pd=0u as=0p ps=0u w=4e+06u l=6e+06u
X72 a_19136_919.t31 VM8D.t48 VP.t119 VP.t50 sky130_fd_pr__pfet_01v8 ad=0p pd=0u as=0p ps=0u w=4e+06u l=1e+06u
X73 VP.t118 VM8D.t49 a_19136_919.t30 VP.t28 sky130_fd_pr__pfet_01v8 ad=0p pd=0u as=0p ps=0u w=4e+06u l=1e+06u
X74 VM3D.t22 VM3G.t2 VN.t56 VN.t55 sky130_fd_pr__nfet_01v8 ad=0p pd=0u as=0p ps=0u w=4e+06u l=6e+06u
X75 VM12D.t54 VM2D VM11D VN.t92 sky130_fd_pr__nfet_01v8 ad=0p pd=0u as=0p ps=0u w=4e+06u l=6e+06u
X76 VM12D.t53 VM2D VM11D VN.t71 sky130_fd_pr__nfet_01v8 ad=0p pd=0u as=0p ps=0u w=4e+06u l=6e+06u
X77 VM11D VM2D VM12D.t52 VN.t81 sky130_fd_pr__nfet_01v8 ad=0p pd=0u as=0p ps=0u w=4e+06u l=6e+06u
X78 a_19136_7699.t10 VM8D.t21 VM8D.t22 VP.t54 sky130_fd_pr__pfet_01v8 ad=0p pd=0u as=0p ps=0u w=4e+06u l=200000u
X79 VM12G VM14D.t20 VP.t21 VM12G sky130_fd_pr__nfet_01v8_lvt ad=0p pd=0u as=0p ps=0u w=4e+06u l=150000u
X80 VP.t117 VM8D.t50 a_19136_919.t68 VP.t42 sky130_fd_pr__pfet_01v8 ad=0p pd=0u as=0p ps=0u w=4e+06u l=1e+06u
X81 VP.t116 VM8D.t51 a_19136_919.t67 VP.t44 sky130_fd_pr__pfet_01v8 ad=0p pd=0u as=0p ps=0u w=4e+06u l=1e+06u
X82 a_19136_919.t59 VM8D.t52 VP.t115 VP.t46 sky130_fd_pr__pfet_01v8 ad=0p pd=0u as=0p ps=0u w=4e+06u l=1e+06u
X83 VN.t52 VM12G VM12D.t1 VN.t33 sky130_fd_pr__nfet_01v8 ad=0p pd=0u as=0p ps=0u w=4e+06u l=6e+06u
X84 a_19136_919.t58 VM8D.t53 VP.t114 VP.t34 sky130_fd_pr__pfet_01v8 ad=0p pd=0u as=0p ps=0u w=4e+06u l=1e+06u
X85 a_19136_919.t27 VM8D.t54 VM14D.t10 VP.t81 sky130_fd_pr__pfet_01v8 ad=0p pd=0u as=0p ps=0u w=4e+06u l=200000u
X86 VP.t19 VM14D.t21 VM12G VM12G sky130_fd_pr__nfet_01v8_lvt ad=0p pd=0u as=0p ps=0u w=4e+06u l=150000u
X87 a_19136_919.t49 VM8D.t55 VM14D.t9 VP.t41 sky130_fd_pr__pfet_01v8 ad=0p pd=0u as=0p ps=0u w=4e+06u l=200000u
X88 VM12D.t51 VM2D VM11D VN.t26 sky130_fd_pr__nfet_01v8 ad=0p pd=0u as=0p ps=0u w=4e+06u l=6e+06u
X89 a_216_n2258.t0 VM22D.t24 I_ref.t17 VN.t41 sky130_fd_pr__nfet_01v8_lvt ad=0p pd=0u as=0p ps=0u w=4e+06u l=150000u
X90 VM8D.t4 VM9D.t46 VM11D VM11D sky130_fd_pr__nfet_01v8_lvt ad=0p pd=0u as=0p ps=0u w=4e+06u l=1e+06u
X91 VM11D VM2D VM12D.t50 VN.t28 sky130_fd_pr__nfet_01v8 ad=0p pd=0u as=0p ps=0u w=4e+06u l=6e+06u
X92 VM2D VM9D.t28 VM9D.t29 VM2D sky130_fd_pr__nfet_01v8_lvt ad=0p pd=0u as=0p ps=0u w=4e+06u l=1e+06u
X93 VP.t107 VM8D.t56 a_19136_7699.t8 VP.t90 sky130_fd_pr__pfet_01v8 ad=0p pd=0u as=0p ps=0u w=4e+06u l=1e+06u
X94 a_19136_9959.t8 VM8D.t57 VP.t108 VP.t66 sky130_fd_pr__pfet_01v8 ad=0p pd=0u as=0p ps=0u w=4e+06u l=1e+06u
X95 VP.t15 VM14D.t22 VM12G VM12G sky130_fd_pr__nfet_01v8_lvt ad=0p pd=0u as=0p ps=0u w=4e+06u l=150000u
X96 a_19136_919.t41 VM8D.t58 VP.t113 VP.t50 sky130_fd_pr__pfet_01v8 ad=0p pd=0u as=0p ps=0u w=4e+06u l=1e+06u
X97 a_19136_919.t40 VM8D.t59 VP.t112 VP.t34 sky130_fd_pr__pfet_01v8 ad=0p pd=0u as=0p ps=0u w=4e+06u l=1e+06u
X98 VM12D.t49 VM2D VM11D VN.t92 sky130_fd_pr__nfet_01v8 ad=0p pd=0u as=0p ps=0u w=4e+06u l=6e+06u
X99 VM9D.t27 VM9D.t26 VM2D VM2D sky130_fd_pr__nfet_01v8_lvt ad=0p pd=0u as=0p ps=0u w=4e+06u l=1e+06u
X100 VM12G VM14D.t23 VP.t2 VM12G sky130_fd_pr__nfet_01v8_lvt ad=0p pd=0u as=0p ps=0u w=4e+06u l=150000u
X101 VP.t111 VM8D.t60 a_19136_919.t0 VP.t28 sky130_fd_pr__pfet_01v8 ad=0p pd=0u as=0p ps=0u w=4e+06u l=1e+06u
X102 VN.t101 VP.t23 sky130_fd_pr__cap_mim_m3_2 l=3e+07u w=3e+07u
X103 VP.t110 VM8D.t61 a_19136_n1351.t7 VP.t24 sky130_fd_pr__pfet_01v8 ad=0p pd=0u as=0p ps=0u w=4e+06u l=1e+06u
X104 a_216_n2258.t15 VM22D.t25 I_ref.t16 VN.t29 sky130_fd_pr__nfet_01v8_lvt ad=0p pd=0u as=0p ps=0u w=4e+06u l=150000u
X105 a_11158_13910.t7 VM11D VN.t17 VN.t16 sky130_fd_pr__nfet_01v8_lvt ad=0p pd=0u as=0p ps=0u w=4e+06u l=200000u
X106 VP.t109 VM8D.t62 a_19136_9959.t7 VP.t90 sky130_fd_pr__pfet_01v8 ad=0p pd=0u as=0p ps=0u w=4e+06u l=1e+06u
X107 VM12D.t48 VM2D VM11D VN.t35 sky130_fd_pr__nfet_01v8 ad=0p pd=0u as=0p ps=0u w=4e+06u l=6e+06u
X108 VM9D.t25 VM9D.t24 VM2D VM2D sky130_fd_pr__nfet_01v8_lvt ad=0p pd=0u as=0p ps=0u w=4e+06u l=1e+06u
X109 a_19136_9959.t11 VM8D.t63 VM9D.t41 VP.t54 sky130_fd_pr__pfet_01v8 ad=0p pd=0u as=0p ps=0u w=4e+06u l=200000u
X110 a_19706_n4664.t1 a_20236_n2232.t0 VN.t31 sky130_fd_pr__res_xhigh_po_1p41 l=1e+07u
X111 a_11158_13910.t6 VM11D VN.t19 VN.t18 sky130_fd_pr__nfet_01v8_lvt ad=0p pd=0u as=0p ps=0u w=4e+06u l=200000u
X112 a_18646_n4664.t0 a_216_n2258.t20 VN.t31 sky130_fd_pr__res_xhigh_po_1p41 l=1e+07u
X113 VP.t106 VM8D.t64 a_19136_919.t42 VP.t55 sky130_fd_pr__pfet_01v8 ad=0p pd=0u as=0p ps=0u w=4e+06u l=1e+06u
X114 I_ref.t15 VM22D.t26 a_216_n2258.t10 VN.t42 sky130_fd_pr__nfet_01v8_lvt ad=0p pd=0u as=0p ps=0u w=4e+06u l=150000u
X115 VM12D.t47 VM2D VM11D VN.t72 sky130_fd_pr__nfet_01v8 ad=0p pd=0u as=0p ps=0u w=4e+06u l=6e+06u
X116 VM11D VM9D.t47 VM8D.t0 VM11D sky130_fd_pr__nfet_01v8_lvt ad=0p pd=0u as=0p ps=0u w=4e+06u l=1e+06u
X117 VM11D VM2D VM12D.t46 VN.t66 sky130_fd_pr__nfet_01v8 ad=0p pd=0u as=0p ps=0u w=4e+06u l=6e+06u
X118 VM12D.t0 VM12G VN.t51 VN.t33 sky130_fd_pr__nfet_01v8 ad=0p pd=0u as=0p ps=0u w=4e+06u l=6e+06u
X119 VM2D VM9D.t22 VM9D.t23 VM2D sky130_fd_pr__nfet_01v8_lvt ad=0p pd=0u as=0p ps=0u w=4e+06u l=1e+06u
X120 VM12G VM14D.t24 VP.t14 VM12G sky130_fd_pr__nfet_01v8_lvt ad=0p pd=0u as=0p ps=0u w=4e+06u l=150000u
X121 VM11D VM9D.t48 VM8D.t18 VM11D sky130_fd_pr__nfet_01v8_lvt ad=0p pd=0u as=0p ps=0u w=4e+06u l=1e+06u
X122 VM11D VM9D.t49 VM8D.t15 VM11D sky130_fd_pr__nfet_01v8_lvt ad=0p pd=0u as=0p ps=0u w=4e+06u l=1e+06u
X123 VM12D.t45 VM2D VM11D VN.t5 sky130_fd_pr__nfet_01v8 ad=0p pd=0u as=0p ps=0u w=4e+06u l=6e+06u
X124 VM11D VM2D VM12D.t44 VN.t26 sky130_fd_pr__nfet_01v8 ad=0p pd=0u as=0p ps=0u w=4e+06u l=6e+06u
X125 a_19136_919.t48 VM8D.t65 VP.t105 VP.t46 sky130_fd_pr__pfet_01v8 ad=0p pd=0u as=0p ps=0u w=4e+06u l=1e+06u
X126 VM2D VM9D.t20 VM9D.t21 VM2D sky130_fd_pr__nfet_01v8_lvt ad=0p pd=0u as=0p ps=0u w=4e+06u l=1e+06u
X127 VP.t13 VM14D.t25 VM12G VM12G sky130_fd_pr__nfet_01v8_lvt ad=0p pd=0u as=0p ps=0u w=4e+06u l=150000u
X128 a_19136_919.t10 VM8D.t66 VM14D.t8 VP.t81 sky130_fd_pr__pfet_01v8 ad=0p pd=0u as=0p ps=0u w=4e+06u l=200000u
X129 VM8D.t14 VM9D.t50 VM11D VM11D sky130_fd_pr__nfet_01v8_lvt ad=0p pd=0u as=0p ps=0u w=4e+06u l=1e+06u
X130 VP.t104 VM8D.t67 a_19136_9959.t6 VP.t38 sky130_fd_pr__pfet_01v8 ad=0p pd=0u as=0p ps=0u w=4e+06u l=1e+06u
X131 VM11D VM2D VM12D.t43 VN.t40 sky130_fd_pr__nfet_01v8 ad=0p pd=0u as=0p ps=0u w=4e+06u l=6e+06u
X132 VP.t138 VM8D.t2 sky130_fd_pr__cap_mim_m3_1 l=2e+07u w=2e+07u
X133 VM11D VM2D VM12D.t42 VN.t81 sky130_fd_pr__nfet_01v8 ad=0p pd=0u as=0p ps=0u w=4e+06u l=6e+06u
X134 VM11D VM2D VM12D.t41 VN.t77 sky130_fd_pr__nfet_01v8 ad=0p pd=0u as=0p ps=0u w=4e+06u l=6e+06u
X135 VM8D.t3 VM9D.t51 VM11D VM11D sky130_fd_pr__nfet_01v8_lvt ad=0p pd=0u as=0p ps=0u w=4e+06u l=1e+06u
X136 VM12D.t40 VM2D VM11D VN.t35 sky130_fd_pr__nfet_01v8 ad=0p pd=0u as=0p ps=0u w=4e+06u l=6e+06u
X137 VP.t102 VM8D.t68 a_19136_7699.t7 VP.t90 sky130_fd_pr__pfet_01v8 ad=0p pd=0u as=0p ps=0u w=4e+06u l=1e+06u
X138 a_19136_919.t32 VM8D.t69 VP.t103 VP.t26 sky130_fd_pr__pfet_01v8 ad=0p pd=0u as=0p ps=0u w=4e+06u l=1e+06u
X139 VM11D VM2D VM12D.t39 VN.t75 sky130_fd_pr__nfet_01v8 ad=0p pd=0u as=0p ps=0u w=4e+06u l=6e+06u
X140 VM3D.t23 VM3G.t3 VN.t57 VN.t45 sky130_fd_pr__nfet_01v8 ad=0p pd=0u as=0p ps=0u w=4e+06u l=6e+06u
X141 VP.t101 VM8D.t70 a_19136_919.t37 VP.t60 sky130_fd_pr__pfet_01v8 ad=0p pd=0u as=0p ps=0u w=4e+06u l=1e+06u
X142 I_ref.t14 VM22D.t27 a_216_n2258.t9 VN.t59 sky130_fd_pr__nfet_01v8_lvt ad=0p pd=0u as=0p ps=0u w=4e+06u l=150000u
X143 a_216_n2258.t18 VM22D.t28 I_ref.t13 VN.t0 sky130_fd_pr__nfet_01v8_lvt ad=0p pd=0u as=0p ps=0u w=4e+06u l=150000u
X144 VM11D VM2D VM12D.t38 VN.t40 sky130_fd_pr__nfet_01v8 ad=0p pd=0u as=0p ps=0u w=4e+06u l=6e+06u
X145 VP.t100 VM8D.t71 a_19136_919.t36 VP.t52 sky130_fd_pr__pfet_01v8 ad=0p pd=0u as=0p ps=0u w=4e+06u l=1e+06u
X146 VM11D VM9D.t52 VM8D.t10 VM11D sky130_fd_pr__nfet_01v8_lvt ad=0p pd=0u as=0p ps=0u w=4e+06u l=1e+06u
X147 I_ref.t12 VM22D.t29 a_216_n2258.t17 VN.t42 sky130_fd_pr__nfet_01v8_lvt ad=0p pd=0u as=0p ps=0u w=4e+06u l=150000u
X148 a_216_n2258.t13 VM22D.t30 I_ref.t11 VN.t41 sky130_fd_pr__nfet_01v8_lvt ad=0p pd=0u as=0p ps=0u w=4e+06u l=150000u
X149 I_ref.t10 VM22D.t31 a_216_n2258.t14 VN.t38 sky130_fd_pr__nfet_01v8_lvt ad=0p pd=0u as=0p ps=0u w=4e+06u l=150000u
X150 VM12D.t37 VM2D VM11D VN.t69 sky130_fd_pr__nfet_01v8 ad=0p pd=0u as=0p ps=0u w=4e+06u l=6e+06u
X151 VP.t5 VM14D.t26 VM12G VM12G sky130_fd_pr__nfet_01v8_lvt ad=0p pd=0u as=0p ps=0u w=4e+06u l=150000u
X152 VM2D VM2D VN.t96 VN.t72 sky130_fd_pr__nfet_01v8 ad=0p pd=0u as=0p ps=0u w=4e+06u l=6e+06u
X153 VM11D VM2D VM12D.t36 VN.t72 sky130_fd_pr__nfet_01v8 ad=0p pd=0u as=0p ps=0u w=4e+06u l=6e+06u
X154 a_19136_n1351.t10 VM8D.t72 VM22D.t18 VP.t99 sky130_fd_pr__pfet_01v8 ad=0p pd=0u as=0p ps=0u w=4e+06u l=200000u
X155 I_ref.t9 VM22D.t32 a_216_n2258.t5 VN.t2 sky130_fd_pr__nfet_01v8_lvt ad=0p pd=0u as=0p ps=0u w=4e+06u l=150000u
X156 a_216_n2258.t4 VM22D.t33 I_ref.t8 VN.t1 sky130_fd_pr__nfet_01v8_lvt ad=0p pd=0u as=0p ps=0u w=4e+06u l=150000u
X157 I_ref.t7 VM22D.t34 a_216_n2258.t16 VN.t30 sky130_fd_pr__nfet_01v8_lvt ad=0p pd=0u as=0p ps=0u w=4e+06u l=150000u
X158 VM12D.t35 VM2D VM11D VN.t72 sky130_fd_pr__nfet_01v8 ad=0p pd=0u as=0p ps=0u w=4e+06u l=6e+06u
X159 VM12D.t34 VM2D VM11D VN.t67 sky130_fd_pr__nfet_01v8 ad=0p pd=0u as=0p ps=0u w=4e+06u l=6e+06u
X160 a_19136_919.t11 VM8D.t73 VP.t98 VP.t46 sky130_fd_pr__pfet_01v8 ad=0p pd=0u as=0p ps=0u w=4e+06u l=1e+06u
X161 a_19136_919.t3 VM8D.t74 VP.t97 VP.t50 sky130_fd_pr__pfet_01v8 ad=0p pd=0u as=0p ps=0u w=4e+06u l=1e+06u
X162 VM12G VM14D.t27 VP.t8 VM12G sky130_fd_pr__nfet_01v8_lvt ad=0p pd=0u as=0p ps=0u w=4e+06u l=150000u
X163 VN.t95 VM2D VM2D VN.t33 sky130_fd_pr__nfet_01v8 ad=0p pd=0u as=0p ps=0u w=4e+06u l=6e+06u
X164 I_ref.t6 VM22D.t35 a_216_n2258.t11 VN.t30 sky130_fd_pr__nfet_01v8_lvt ad=0p pd=0u as=0p ps=0u w=4e+06u l=150000u
X165 a_216_n2258.t19 VM22D.t36 I_ref.t5 VN.t39 sky130_fd_pr__nfet_01v8_lvt ad=0p pd=0u as=0p ps=0u w=4e+06u l=150000u
X166 VN.t94 VM2D VM2D VN.t33 sky130_fd_pr__nfet_01v8 ad=0p pd=0u as=0p ps=0u w=4e+06u l=6e+06u
X167 a_19136_n1351.t6 VM8D.t75 VP.t96 VP.t95 sky130_fd_pr__pfet_01v8 ad=0p pd=0u as=0p ps=0u w=4e+06u l=1e+06u
X168 VP.t94 VM8D.t76 a_19136_919.t53 VP.t28 sky130_fd_pr__pfet_01v8 ad=0p pd=0u as=0p ps=0u w=4e+06u l=1e+06u
X169 VN.t93 VM2D VM2D VN.t92 sky130_fd_pr__nfet_01v8 ad=0p pd=0u as=0p ps=0u w=4e+06u l=6e+06u
X170 VM12D.t33 VM2D VM11D VN.t71 sky130_fd_pr__nfet_01v8 ad=0p pd=0u as=0p ps=0u w=4e+06u l=6e+06u
X171 VM11D VM2D VM12D.t32 VN.t81 sky130_fd_pr__nfet_01v8 ad=0p pd=0u as=0p ps=0u w=4e+06u l=6e+06u
X172 VN.t46 VM3G.t4 VM3D.t20 VN.t45 sky130_fd_pr__nfet_01v8 ad=0p pd=0u as=0p ps=0u w=4e+06u l=6e+06u
X173 VP.t93 VM8D.t77 a_19136_919.t22 VP.t44 sky130_fd_pr__pfet_01v8 ad=0p pd=0u as=0p ps=0u w=4e+06u l=1e+06u
X174 VP.t91 VM8D.t78 a_19136_9959.t5 VP.t90 sky130_fd_pr__pfet_01v8 ad=0p pd=0u as=0p ps=0u w=4e+06u l=1e+06u
X175 a_19136_7699.t6 VM8D.t79 VP.t92 VP.t66 sky130_fd_pr__pfet_01v8 ad=0p pd=0u as=0p ps=0u w=4e+06u l=1e+06u
X176 VP.t89 VM8D.t80 a_19136_919.t19 VP.t44 sky130_fd_pr__pfet_01v8 ad=0p pd=0u as=0p ps=0u w=4e+06u l=1e+06u
X177 a_19136_919.t50 VM8D.t81 VM14D.t7 VP.t41 sky130_fd_pr__pfet_01v8 ad=0p pd=0u as=0p ps=0u w=4e+06u l=200000u
X178 VM12D.t31 VM2D VM11D VN.t33 sky130_fd_pr__nfet_01v8 ad=0p pd=0u as=0p ps=0u w=4e+06u l=6e+06u
X179 VN.t91 VM2D VM2D VN.t26 sky130_fd_pr__nfet_01v8 ad=0p pd=0u as=0p ps=0u w=4e+06u l=6e+06u
X180 VP.t88 VM8D.t82 a_19136_n1351.t5 VP.t63 sky130_fd_pr__pfet_01v8 ad=0p pd=0u as=0p ps=0u w=4e+06u l=1e+06u
X181 VN.t15 VM11D a_11158_13910.t5 VN.t14 sky130_fd_pr__nfet_01v8_lvt ad=0p pd=0u as=0p ps=0u w=4e+06u l=200000u
X182 VM2D VM2D VN.t90 VN.t28 sky130_fd_pr__nfet_01v8 ad=0p pd=0u as=0p ps=0u w=4e+06u l=6e+06u
X183 a_19136_919.t51 VM8D.t83 VM14D.t6 VP.t81 sky130_fd_pr__pfet_01v8 ad=0p pd=0u as=0p ps=0u w=4e+06u l=200000u
X184 VM12D.t30 VM2D VM11D VN.t5 sky130_fd_pr__nfet_01v8 ad=0p pd=0u as=0p ps=0u w=4e+06u l=6e+06u
X185 a_19136_919.t64 VM8D.t84 VP.t87 VP.t46 sky130_fd_pr__pfet_01v8 ad=0p pd=0u as=0p ps=0u w=4e+06u l=1e+06u
X186 VM2D VM2D VN.t89 VN.t28 sky130_fd_pr__nfet_01v8 ad=0p pd=0u as=0p ps=0u w=4e+06u l=6e+06u
X187 VN.t88 VM2D VM2D VN.t26 sky130_fd_pr__nfet_01v8 ad=0p pd=0u as=0p ps=0u w=4e+06u l=6e+06u
X188 VM12G a_13386_4078.t0 VN.t34 sky130_fd_pr__res_xhigh_po_1p41 l=1e+07u
X189 VM3D.t12 a_216_n2258.t28 VM22D.t14 VN.t26 sky130_fd_pr__nfet_01v8 ad=0p pd=0u as=0p ps=0u w=4e+06u l=6e+06u
X190 VN.t13 VM11D a_11158_13910.t4 VN.t12 sky130_fd_pr__nfet_01v8_lvt ad=0p pd=0u as=0p ps=0u w=4e+06u l=200000u
X191 a_19136_n1351.t4 VM8D.t85 VP.t70 VP.t36 sky130_fd_pr__pfet_01v8 ad=0p pd=0u as=0p ps=0u w=4e+06u l=1e+06u
X192 VM9D.t19 VM9D.t18 VM2D VM2D sky130_fd_pr__nfet_01v8_lvt ad=0p pd=0u as=0p ps=0u w=4e+06u l=1e+06u
X193 VM8D.t9 VM9D.t53 VM11D VM11D sky130_fd_pr__nfet_01v8_lvt ad=0p pd=0u as=0p ps=0u w=4e+06u l=1e+06u
X194 VM12D.t29 VM2D VM11D VN.t69 sky130_fd_pr__nfet_01v8 ad=0p pd=0u as=0p ps=0u w=4e+06u l=6e+06u
X195 a_216_n2258.t8 VM22D.t37 I_ref.t4 VN.t1 sky130_fd_pr__nfet_01v8_lvt ad=0p pd=0u as=0p ps=0u w=4e+06u l=150000u
X196 VM12D.t28 VM2D VM11D VN.t67 sky130_fd_pr__nfet_01v8 ad=0p pd=0u as=0p ps=0u w=4e+06u l=6e+06u
X197 VM9D.t17 VM9D.t16 VM2D VM2D sky130_fd_pr__nfet_01v8_lvt ad=0p pd=0u as=0p ps=0u w=4e+06u l=1e+06u
X198 VP.t86 VM8D.t86 a_19136_919.t63 VP.t55 sky130_fd_pr__pfet_01v8 ad=0p pd=0u as=0p ps=0u w=4e+06u l=1e+06u
X199 VP.t85 VM8D.t87 a_19136_919.t61 VP.t60 sky130_fd_pr__pfet_01v8 ad=0p pd=0u as=0p ps=0u w=4e+06u l=1e+06u
X200 VM22D.t12 a_216_n2258.t29 VM3D.t11 VN.t33 sky130_fd_pr__nfet_01v8 ad=0p pd=0u as=0p ps=0u w=4e+06u l=6e+06u
X201 VM11D VM2D VM12D.t27 VN.t28 sky130_fd_pr__nfet_01v8 ad=0p pd=0u as=0p ps=0u w=4e+06u l=6e+06u
X202 VM11D VM2D VM12D.t26 VN.t36 sky130_fd_pr__nfet_01v8 ad=0p pd=0u as=0p ps=0u w=4e+06u l=6e+06u
X203 VP.t84 VM8D.t88 a_19136_919.t60 VP.t52 sky130_fd_pr__pfet_01v8 ad=0p pd=0u as=0p ps=0u w=4e+06u l=1e+06u
X204 VM11D VM9D.t54 VM8D.t12 VM11D sky130_fd_pr__nfet_01v8_lvt ad=0p pd=0u as=0p ps=0u w=4e+06u l=1e+06u
X205 VP.t10 VM14D.t28 VM12G VM12G sky130_fd_pr__nfet_01v8_lvt ad=0p pd=0u as=0p ps=0u w=4e+06u l=150000u
X206 VN.t54 VM3G.t5 VM3D.t21 VN.t53 sky130_fd_pr__nfet_01v8 ad=0p pd=0u as=0p ps=0u w=4e+06u l=6e+06u
X207 VM11D VM2D VM12D.t25 VN.t32 sky130_fd_pr__nfet_01v8 ad=0p pd=0u as=0p ps=0u w=4e+06u l=6e+06u
X208 a_17176_1646.t0 a_17706_4078.t0 VN.t27 sky130_fd_pr__res_xhigh_po_1p41 l=1e+07u
X209 VM8D.t20 VM9D.t55 VM11D VM11D sky130_fd_pr__nfet_01v8_lvt ad=0p pd=0u as=0p ps=0u w=4e+06u l=1e+06u
X210 VM12G VM14D.t29 VP.t11 VM12G sky130_fd_pr__nfet_01v8_lvt ad=0p pd=0u as=0p ps=0u w=4e+06u l=150000u
X211 a_19136_919.t25 VM8D.t89 VP.t83 VP.t50 sky130_fd_pr__pfet_01v8 ad=0p pd=0u as=0p ps=0u w=4e+06u l=1e+06u
X212 VP.t4 VM11D a_11158_13910.t0 VP.t3 sky130_fd_pr__pfet_01v8 ad=0p pd=0u as=0p ps=0u w=500000u l=2e+06u
X213 VP.t82 VM8D.t90 a_19136_919.t24 VP.t42 sky130_fd_pr__pfet_01v8 ad=0p pd=0u as=0p ps=0u w=4e+06u l=1e+06u
X214 VM2D VM9D.t14 VM9D.t15 VM2D sky130_fd_pr__nfet_01v8_lvt ad=0p pd=0u as=0p ps=0u w=4e+06u l=1e+06u
X215 a_19136_919.t13 VM8D.t91 VM14D.t5 VP.t81 sky130_fd_pr__pfet_01v8 ad=0p pd=0u as=0p ps=0u w=4e+06u l=200000u
X216 VM12D.t24 VM2D VM11D VN.t3 sky130_fd_pr__nfet_01v8 ad=0p pd=0u as=0p ps=0u w=4e+06u l=6e+06u
X217 VM8D.t13 a_11158_13910.t11 VN.t44 VN.t43 sky130_fd_pr__nfet_01v8 ad=0p pd=0u as=0p ps=0u w=500000u l=2e+06u
X218 VP.t80 VM8D.t92 a_19136_919.t12 VP.t44 sky130_fd_pr__pfet_01v8 ad=0p pd=0u as=0p ps=0u w=4e+06u l=1e+06u
X219 a_19136_7699.t5 VM8D.t93 VP.t79 VP.t66 sky130_fd_pr__pfet_01v8 ad=0p pd=0u as=0p ps=0u w=4e+06u l=1e+06u
X220 VN.t87 VM2D VM2D VN.t5 sky130_fd_pr__nfet_01v8 ad=0p pd=0u as=0p ps=0u w=4e+06u l=6e+06u
X221 VM2D VM2D VN.t86 VN.t26 sky130_fd_pr__nfet_01v8 ad=0p pd=0u as=0p ps=0u w=4e+06u l=6e+06u
X222 I_ref.t3 VM22D.t38 a_216_n2258.t12 VN.t2 sky130_fd_pr__nfet_01v8_lvt ad=0p pd=0u as=0p ps=0u w=4e+06u l=150000u
X223 VM11D VM2D VM12D.t23 VN.t26 sky130_fd_pr__nfet_01v8 ad=0p pd=0u as=0p ps=0u w=4e+06u l=6e+06u
X224 VM2D VM9D.t12 VM9D.t13 VM2D sky130_fd_pr__nfet_01v8_lvt ad=0p pd=0u as=0p ps=0u w=4e+06u l=1e+06u
X225 VM8D.t11 VM9D.t56 VM11D VM11D sky130_fd_pr__nfet_01v8_lvt ad=0p pd=0u as=0p ps=0u w=4e+06u l=1e+06u
X226 VM2D VM2D VN.t85 VN.t26 sky130_fd_pr__nfet_01v8 ad=0p pd=0u as=0p ps=0u w=4e+06u l=6e+06u
X227 a_19136_919.t14 VM8D.t94 VM14D.t4 VP.t41 sky130_fd_pr__pfet_01v8 ad=0p pd=0u as=0p ps=0u w=4e+06u l=200000u
X228 VP.t78 VM8D.t95 a_19136_919.t43 VP.t60 sky130_fd_pr__pfet_01v8 ad=0p pd=0u as=0p ps=0u w=4e+06u l=1e+06u
X229 VN.t84 VM2D VM2D VN.t5 sky130_fd_pr__nfet_01v8 ad=0p pd=0u as=0p ps=0u w=4e+06u l=6e+06u
X230 VM2D VM9D.t10 VM9D.t11 VM2D sky130_fd_pr__nfet_01v8_lvt ad=0p pd=0u as=0p ps=0u w=4e+06u l=1e+06u
X231 VP.t77 VM8D.t96 a_19136_7699.t4 VP.t38 sky130_fd_pr__pfet_01v8 ad=0p pd=0u as=0p ps=0u w=4e+06u l=1e+06u
X232 VM2D VM2D VN.t83 VN.t40 sky130_fd_pr__nfet_01v8 ad=0p pd=0u as=0p ps=0u w=4e+06u l=6e+06u
X233 a_19136_919.t33 VM8D.t97 VP.t76 VP.t26 sky130_fd_pr__pfet_01v8 ad=0p pd=0u as=0p ps=0u w=4e+06u l=1e+06u
X234 a_216_n2258.t2 VM22D.t39 I_ref.t2 VN.t29 sky130_fd_pr__nfet_01v8_lvt ad=0p pd=0u as=0p ps=0u w=4e+06u l=150000u
X235 VM2D VM2D VN.t82 VN.t81 sky130_fd_pr__nfet_01v8 ad=0p pd=0u as=0p ps=0u w=4e+06u l=6e+06u
X236 VM11D VM2D VM12D.t22 VN.t77 sky130_fd_pr__nfet_01v8 ad=0p pd=0u as=0p ps=0u w=4e+06u l=6e+06u
X237 a_19136_919.t70 VM8D.t98 VP.t75 VP.t34 sky130_fd_pr__pfet_01v8 ad=0p pd=0u as=0p ps=0u w=4e+06u l=1e+06u
X238 VN.t80 VM2D VM2D VN.t35 sky130_fd_pr__nfet_01v8 ad=0p pd=0u as=0p ps=0u w=4e+06u l=6e+06u
X239 VN.t102 VP.t22 sky130_fd_pr__cap_mim_m3_2 l=3e+07u w=3e+07u
X240 VN.t79 VM2D VM2D VN.t35 sky130_fd_pr__nfet_01v8 ad=0p pd=0u as=0p ps=0u w=4e+06u l=6e+06u
X241 VM2D VM2D VN.t78 VN.t40 sky130_fd_pr__nfet_01v8 ad=0p pd=0u as=0p ps=0u w=4e+06u l=6e+06u
X242 VM9D.t9 VM9D.t8 VM2D VM2D sky130_fd_pr__nfet_01v8_lvt ad=0p pd=0u as=0p ps=0u w=4e+06u l=1e+06u
X243 VM11D VM2D VM12D.t21 VN.t33 sky130_fd_pr__nfet_01v8 ad=0p pd=0u as=0p ps=0u w=4e+06u l=6e+06u
X244 VP.t74 VM8D.t99 a_19136_919.t69 VP.t28 sky130_fd_pr__pfet_01v8 ad=0p pd=0u as=0p ps=0u w=4e+06u l=1e+06u
X245 VM11D VM2D VM12D.t20 VN.t77 sky130_fd_pr__nfet_01v8 ad=0p pd=0u as=0p ps=0u w=4e+06u l=6e+06u
X246 VM9D.t7 VM9D.t6 VM2D VM2D sky130_fd_pr__nfet_01v8_lvt ad=0p pd=0u as=0p ps=0u w=4e+06u l=1e+06u
X247 VM11D VM2D VM12D.t19 VN.t75 sky130_fd_pr__nfet_01v8 ad=0p pd=0u as=0p ps=0u w=4e+06u l=6e+06u
X248 VM12D.t18 VM2D VM11D VN.t76 sky130_fd_pr__nfet_01v8 ad=0p pd=0u as=0p ps=0u w=4e+06u l=6e+06u
X249 VM11D VM9D.t57 VM8D.t25 VM11D sky130_fd_pr__nfet_01v8_lvt ad=0p pd=0u as=0p ps=0u w=4e+06u l=1e+06u
X250 VM12D.t17 VM2D VM11D VN.t33 sky130_fd_pr__nfet_01v8 ad=0p pd=0u as=0p ps=0u w=4e+06u l=6e+06u
X251 VP.t73 VM8D.t100 a_19136_n1351.t3 VP.t72 sky130_fd_pr__pfet_01v8 ad=0p pd=0u as=0p ps=0u w=4e+06u l=1e+06u
X252 VM12D.t16 VM2D VM11D VN.t3 sky130_fd_pr__nfet_01v8 ad=0p pd=0u as=0p ps=0u w=4e+06u l=6e+06u
X253 VM11D VM2D VM12D.t15 VN.t75 sky130_fd_pr__nfet_01v8 ad=0p pd=0u as=0p ps=0u w=4e+06u l=6e+06u
X254 VP.t69 VM8D.t101 a_19136_7699.t3 VP.t32 sky130_fd_pr__pfet_01v8 ad=0p pd=0u as=0p ps=0u w=4e+06u l=1e+06u
X255 VP.t71 VM8D.t102 a_19136_919.t71 VP.t60 sky130_fd_pr__pfet_01v8 ad=0p pd=0u as=0p ps=0u w=4e+06u l=1e+06u
X256 VM12D.t14 VM2D VM11D VN.t69 sky130_fd_pr__nfet_01v8 ad=0p pd=0u as=0p ps=0u w=4e+06u l=6e+06u
X257 VM12D.t13 VM2D VM11D VN.t74 sky130_fd_pr__nfet_01v8 ad=0p pd=0u as=0p ps=0u w=4e+06u l=6e+06u
X258 VP.t68 VM8D.t103 a_19136_919.t44 VP.t52 sky130_fd_pr__pfet_01v8 ad=0p pd=0u as=0p ps=0u w=4e+06u l=1e+06u
X259 VN.t11 VM11D a_11158_13910.t3 VN.t10 sky130_fd_pr__nfet_01v8_lvt ad=0p pd=0u as=0p ps=0u w=4e+06u l=200000u
X260 VN.t50 VM12G VM14D.t1 VN.t48 sky130_fd_pr__nfet_01v8 ad=0p pd=0u as=0p ps=0u w=4e+06u l=6e+06u
X261 VN.t73 VM2D VM2D VN.t72 sky130_fd_pr__nfet_01v8 ad=0p pd=0u as=0p ps=0u w=4e+06u l=6e+06u
X262 a_19136_9959.t4 VM8D.t104 VP.t67 VP.t66 sky130_fd_pr__pfet_01v8 ad=0p pd=0u as=0p ps=0u w=4e+06u l=1e+06u
X263 a_16116_1646.t1 a_16646_4078.t1 VN.t27 sky130_fd_pr__res_xhigh_po_1p41 l=1e+07u
X264 VM2D VM9D.t4 VM9D.t5 VM2D sky130_fd_pr__nfet_01v8_lvt ad=0p pd=0u as=0p ps=0u w=4e+06u l=1e+06u
X265 VM3D.t10 a_216_n2258.t30 VM22D.t7 VN.t33 sky130_fd_pr__nfet_01v8 ad=0p pd=0u as=0p ps=0u w=4e+06u l=6e+06u
X266 VM11D VM9D.t58 VM8D.t19 VM11D sky130_fd_pr__nfet_01v8_lvt ad=0p pd=0u as=0p ps=0u w=4e+06u l=1e+06u
X267 VP.t17 VM14D.t30 VM12G VM12G sky130_fd_pr__nfet_01v8_lvt ad=0p pd=0u as=0p ps=0u w=4e+06u l=150000u
X268 a_19136_919.t45 VM8D.t105 VP.t65 VP.t50 sky130_fd_pr__pfet_01v8 ad=0p pd=0u as=0p ps=0u w=4e+06u l=1e+06u
X269 VP.t64 VM8D.t106 a_19136_n1351.t2 VP.t63 sky130_fd_pr__pfet_01v8 ad=0p pd=0u as=0p ps=0u w=4e+06u l=1e+06u
X270 VM3D.t9 a_216_n2258.t31 VM22D.t17 VN.t40 sky130_fd_pr__nfet_01v8 ad=0p pd=0u as=0p ps=0u w=4e+06u l=6e+06u
X271 VM11D VM2D VM12D.t12 VN.t28 sky130_fd_pr__nfet_01v8 ad=0p pd=0u as=0p ps=0u w=4e+06u l=6e+06u
X272 VM12D.t11 VM2D VM11D VN.t26 sky130_fd_pr__nfet_01v8 ad=0p pd=0u as=0p ps=0u w=4e+06u l=6e+06u
X273 VM3G.t0 a_14526_4078.t0 VN.t4 sky130_fd_pr__res_xhigh_po_1p41 l=1e+07u
X274 VP.t62 VM8D.t107 a_19136_919.t47 VP.t44 sky130_fd_pr__pfet_01v8 ad=0p pd=0u as=0p ps=0u w=4e+06u l=1e+06u
X275 VM12D.t10 VM2D VM11D VN.t71 sky130_fd_pr__nfet_01v8 ad=0p pd=0u as=0p ps=0u w=4e+06u l=6e+06u
X276 a_19136_919.t2 VM8D.t108 VM14D.t3 VP.t41 sky130_fd_pr__pfet_01v8 ad=0p pd=0u as=0p ps=0u w=4e+06u l=200000u
X277 VP.t59 VM8D.t109 a_19136_7699.t2 VP.t38 sky130_fd_pr__pfet_01v8 ad=0p pd=0u as=0p ps=0u w=4e+06u l=1e+06u
X278 VM3D.t8 a_216_n2258.t32 VM22D.t20 VN.t26 sky130_fd_pr__nfet_01v8 ad=0p pd=0u as=0p ps=0u w=4e+06u l=6e+06u
X279 VM22D.t8 a_216_n2258.t33 VM3D.t7 VN.t28 sky130_fd_pr__nfet_01v8 ad=0p pd=0u as=0p ps=0u w=4e+06u l=6e+06u
X280 VP.t61 VM8D.t110 a_19136_919.t34 VP.t60 sky130_fd_pr__pfet_01v8 ad=0p pd=0u as=0p ps=0u w=4e+06u l=1e+06u
X281 a_19136_919.t9 VM8D.t111 VP.t58 VP.t26 sky130_fd_pr__pfet_01v8 ad=0p pd=0u as=0p ps=0u w=4e+06u l=1e+06u
X282 VN.t9 VM11D a_11158_13910.t2 VN.t8 sky130_fd_pr__nfet_01v8_lvt ad=0p pd=0u as=0p ps=0u w=4e+06u l=200000u
X283 VP.t57 VM8D.t112 a_19136_919.t5 VP.t52 sky130_fd_pr__pfet_01v8 ad=0p pd=0u as=0p ps=0u w=4e+06u l=1e+06u
X284 VM22D.t15 a_216_n2258.t34 VM3D.t6 VN.t26 sky130_fd_pr__nfet_01v8 ad=0p pd=0u as=0p ps=0u w=4e+06u l=6e+06u