** sch_path: /home/simon/code/particle_detector/xschem/mpw6_submission.sch
**.subckt mpw6_submission VP_an In_TIA Out_N VN Out_P Dis_TIA I_out Dis_FB Ref_B Ref_A Out_N_LVDS
*+ Out_P_LVDS VP_dig
*.iopin VP_an
*.ipin In_TIA
*.opin Out_N
*.iopin VN
*.opin Out_P
*.ipin Dis_TIA
*.opin I_out
*.ipin Dis_FB
*.ipin Ref_B
*.ipin Ref_A
*.opin Out_N_LVDS
*.opin Out_P_LVDS
*.iopin VP_dig
x4 VP_an Out_N Out_P Bias_A_out Tia_Out Tia_ref VN outdriver
x5 VP_an net5 I_out net4 net3 net6 net7 net8 net9 net10 VN current_mirrorx8
x6 VP_an net4 VN low_pvt_source
x7 VP_an Bias_LVDS Comp_Bias_2 Bias_A_out Comp_Bias_1 Bias_ctl net1 Comp_Bias_3 Comp_Bias_4
+ Comp_Bias_5 Comp_Bias_6 net11 net3 VN current_mirror_channel
x8 VP_an net2 Tia_ref Tia_Out Dis_TIA In_TIA net1 VN tia_rgc_core
x1 VP_an Dis_FB In_TIA net11 Tia_ref Tia_Out VN feedback_sukwani
x3 VP_dig Out_P_LVDS net12 Out_N_LVDS Bias_LVDS VN transmitter
x2 VP_an Tia_ref Tia_Out Comp_Bias_1 net12 Ref_A Comp_Bias_2 Bias_ctl Comp_Bias_4 Comp_Bias_6
+ Comp_Bias_5 Ref_B Comp_Bias_3 VN comparator_complete
**** begin user architecture code


.include /usr/local/share/pdk/sky130A/libs.ref/sky130_fd_sc_hs/spice/sky130_fd_sc_hs.spice


**** end user architecture code
**.ends

* expanding   symbol:  outdriver/outdriver.sym # of pins=7
** sym_path: /home/simon/code/particle_detector/xschem/outdriver/outdriver.sym
** sch_path: /home/simon/code/particle_detector/xschem/outdriver/outdriver.sch
.subckt outdriver  VP OutputN OutputP I_Bias InputSignal InputRef VN
*.iopin VN
*.ipin InputRef
*.iopin VP
*.ipin I_Bias
*.ipin InputSignal
*.opin OutputN
*.opin OutputP
XM1 V_da1_P InputSignal VM6D VM6D sky130_fd_pr__nfet_01v8_lvt L=0.15 W=2 nf=1 ad='int((nf+1)/2) * W/nf * 0.29'
+ as='int((nf+2)/2) * W/nf * 0.29' pd='2*int((nf+1)/2) * (W/nf + 0.29)' ps='2*int((nf+2)/2) * (W/nf + 0.29)'
+ nrd='0.29 / W' nrs='0.29 / W' sa=0 sb=0 sd=0 mult=11*2 m=11*2
XM3 VM3D I_Bias VN VN sky130_fd_pr__nfet_01v8 L=0.5 W=2 nf=1 ad='int((nf+1)/2) * W/nf * 0.29' as='int((nf+2)/2) * W/nf * 0.29'
+ pd='2*int((nf+1)/2) * (W/nf + 0.29)' ps='2*int((nf+2)/2) * (W/nf + 0.29)' nrd='0.29 / W' nrs='0.29 / W'
+ sa=0 sb=0 sd=0 mult=2*(64) m=2*(64)
XM6 VM6D I_Bias VM3D VN sky130_fd_pr__nfet_01v8 L=0.15 W=2 nf=1 ad='int((nf+1)/2) * W/nf * 0.29' as='int((nf+2)/2) * W/nf * 0.29'
+ pd='2*int((nf+1)/2) * (W/nf + 0.29)' ps='2*int((nf+2)/2) * (W/nf + 0.29)' nrd='0.29 / W' nrs='0.29 / W'
+ sa=0 sb=0 sd=0 mult=64 m=64
XM7 I_Bias I_Bias net1 VN sky130_fd_pr__nfet_01v8 L=0.15 W=2 nf=1 ad='int((nf+1)/2) * W/nf * 0.29' as='int((nf+2)/2) * W/nf * 0.29'
+ pd='2*int((nf+1)/2) * (W/nf + 0.29)' ps='2*int((nf+2)/2) * (W/nf + 0.29)' nrd='0.29 / W' nrs='0.29 / W'
+ sa=0 sb=0 sd=0 mult=2 m=2
XM8 net1 I_Bias VN VN sky130_fd_pr__nfet_01v8 L=0.5 W=2 nf=1 ad='int((nf+1)/2) * W/nf * 0.29' as='int((nf+2)/2) * W/nf * 0.29'
+ pd='2*int((nf+1)/2) * (W/nf + 0.29)' ps='2*int((nf+2)/2) * (W/nf + 0.29)' nrd='0.29 / W' nrs='0.29 / W'
+ sa=0 sb=0 sd=0 mult=2*2 m=2*2
XM2 V_da2_P V_da1_P VM1_D VM1_D sky130_fd_pr__nfet_01v8_lvt L=0.15 W=2 nf=1 ad='int((nf+1)/2) * W/nf * 0.29'
+ as='int((nf+2)/2) * W/nf * 0.29' pd='2*int((nf+1)/2) * (W/nf + 0.29)' ps='2*int((nf+2)/2) * (W/nf + 0.29)'
+ nrd='0.29 / W' nrs='0.29 / W' sa=0 sb=0 sd=0 mult=44*2 m=44*2
XM4 V_da2_N V_da1_N VM1_D VM1_D sky130_fd_pr__nfet_01v8_lvt L=0.15 W=2 nf=1 ad='int((nf+1)/2) * W/nf * 0.29'
+ as='int((nf+2)/2) * W/nf * 0.29' pd='2*int((nf+1)/2) * (W/nf + 0.29)' ps='2*int((nf+2)/2) * (W/nf + 0.29)'
+ nrd='0.29 / W' nrs='0.29 / W' sa=0 sb=0 sd=0 mult=44*2 m=44*2
XM9 net2 I_Bias VN VN sky130_fd_pr__nfet_01v8 L=0.5 W=2 nf=1 ad='int((nf+1)/2) * W/nf * 0.29' as='int((nf+2)/2) * W/nf * 0.29'
+ pd='2*int((nf+1)/2) * (W/nf + 0.29)' ps='2*int((nf+2)/2) * (W/nf + 0.29)' nrd='0.29 / W' nrs='0.29 / W'
+ sa=0 sb=0 sd=0 mult=2*(256+64) m=2*(256+64)
XM10 VM1_D I_Bias net2 VN sky130_fd_pr__nfet_01v8 L=0.15 W=2 nf=1 ad='int((nf+1)/2) * W/nf * 0.29' as='int((nf+2)/2) * W/nf * 0.29'
+ pd='2*int((nf+1)/2) * (W/nf + 0.29)' ps='2*int((nf+2)/2) * (W/nf + 0.29)' nrd='0.29 / W' nrs='0.29 / W'
+ sa=0 sb=0 sd=0 mult=256+64 m=256+64
XM11 OutputP V_da2_P VM14D VM14D sky130_fd_pr__nfet_01v8_lvt L=0.15 W=2 nf=1 ad='int((nf+1)/2) * W/nf * 0.29'
+ as='int((nf+2)/2) * W/nf * 0.29' pd='2*int((nf+1)/2) * (W/nf + 0.29)' ps='2*int((nf+2)/2) * (W/nf + 0.29)'
+ nrd='0.29 / W' nrs='0.29 / W' sa=0 sb=0 sd=0 mult=44*4*2 m=44*4*2
XM12 OutputN V_da2_N VM14D VM14D sky130_fd_pr__nfet_01v8_lvt L=0.15 W=2 nf=1 ad='int((nf+1)/2) * W/nf * 0.29'
+ as='int((nf+2)/2) * W/nf * 0.29' pd='2*int((nf+1)/2) * (W/nf + 0.29)' ps='2*int((nf+2)/2) * (W/nf + 0.29)'
+ nrd='0.29 / W' nrs='0.29 / W' sa=0 sb=0 sd=0 mult=44*4*2 m=44*4*2
XM13 net3 I_Bias VN VN sky130_fd_pr__nfet_01v8 L=0.5 W=2 nf=1 ad='int((nf+1)/2) * W/nf * 0.29' as='int((nf+2)/2) * W/nf * 0.29'
+ pd='2*int((nf+1)/2) * (W/nf + 0.29)' ps='2*int((nf+2)/2) * (W/nf + 0.29)' nrd='0.29 / W' nrs='0.29 / W'
+ sa=0 sb=0 sd=0 mult=2*(1024+256) m=2*(1024+256)
XM14 VM14D I_Bias net3 VN sky130_fd_pr__nfet_01v8 L=0.15 W=2 nf=1 ad='int((nf+1)/2) * W/nf * 0.29' as='int((nf+2)/2) * W/nf * 0.29'
+ pd='2*int((nf+1)/2) * (W/nf + 0.29)' ps='2*int((nf+2)/2) * (W/nf + 0.29)' nrd='0.29 / W' nrs='0.29 / W'
+ sa=0 sb=0 sd=0 mult=1024+256 m=1024+256
XR7 V_da2_N VP VN sky130_fd_pr__res_high_po_5p73 L=4 mult=4*2 m=4*2
XR5 V_da2_P VP VN sky130_fd_pr__res_high_po_5p73 L=4 mult=4*2 m=4*2
XR3 V_da1_N VP VN sky130_fd_pr__res_high_po_2p85 L=6 mult=4 m=4
XR4 V_da1_P VP VN sky130_fd_pr__res_high_po_2p85 L=6 mult=4 m=4
XC2 InputRef VN sky130_fd_pr__cap_mim_m3_2 W=30 L=30 VM=1 m=1
XM5 V_da1_N InputRef VM6D VM6D sky130_fd_pr__nfet_01v8_lvt L=0.15 W=2 nf=1 ad='int((nf+1)/2) * W/nf * 0.29'
+ as='int((nf+2)/2) * W/nf * 0.29' pd='2*int((nf+1)/2) * (W/nf + 0.29)' ps='2*int((nf+2)/2) * (W/nf + 0.29)'
+ nrd='0.29 / W' nrs='0.29 / W' sa=0 sb=0 sd=0 mult=11*2 m=11*2
XR8 OutputP VP VN sky130_fd_pr__res_high_po_5p73 L=4 mult=16*2 m=16*2
XC1 InputRef VN sky130_fd_pr__cap_mim_m3_2 W=30 L=30 VM=1 m=1
XC6 VN VP sky130_fd_pr__cap_mim_m3_2 W=30 L=30 VM=1 m=1
XC8 VN VP sky130_fd_pr__cap_mim_m3_2 W=30 L=30 VM=1 m=1
XR1 OutputN VP VN sky130_fd_pr__res_high_po_5p73 L=4 mult=16*2 m=16*2
XC7 VN VP sky130_fd_pr__cap_mim_m3_2 W=30 L=30 VM=1 m=1
XC9 VN VP sky130_fd_pr__cap_mim_m3_2 W=30 L=30 VM=1 m=1
XC10 VN VP sky130_fd_pr__cap_mim_m3_2 W=30 L=30 VM=1 m=1
XC11 VN VP sky130_fd_pr__cap_mim_m3_2 W=30 L=30 VM=1 m=1
XC12 VN VP sky130_fd_pr__cap_mim_m3_2 W=30 L=30 VM=1 m=1
XC13 VN VP sky130_fd_pr__cap_mim_m3_2 W=30 L=30 VM=1 m=1
XC14 VN VP sky130_fd_pr__cap_mim_m3_2 W=30 L=30 VM=1 m=1
XC5 VN I_Bias sky130_fd_pr__cap_mim_m3_1 W=20 L=20 MF=1 m=1
XC3 VN I_Bias sky130_fd_pr__cap_mim_m3_1 W=20 L=20 MF=1 m=1
.ends


* expanding   symbol:  bias/current_mirrorx8.sym # of pins=11
** sym_path: /home/simon/code/particle_detector/xschem/bias/current_mirrorx8.sym
** sch_path: /home/simon/code/particle_detector/xschem/bias/current_mirrorx8.sch
.subckt current_mirrorx8  VP I_out_3 I_out_1 I_In I_out_0 I_out_4 I_out_5 I_out_6 I_out_7 I_out_2 VN
*.opin I_out_0
*.ipin I_In
*.iopin VP
*.opin I_out_1
*.opin I_out_2
*.opin I_out_3
*.opin I_out_4
*.opin I_out_5
*.opin I_out_6
*.opin I_out_7
*.iopin VN
XM1 net1 I_In VP VP sky130_fd_pr__pfet_01v8 L=0.5 W=2 nf=1 ad='int((nf+1)/2) * W/nf * 0.29' as='int((nf+2)/2) * W/nf * 0.29'
+ pd='2*int((nf+1)/2) * (W/nf + 0.29)' ps='2*int((nf+2)/2) * (W/nf + 0.29)' nrd='0.29 / W' nrs='0.29 / W'
+ sa=0 sb=0 sd=0 mult=4 m=4
XM2 I_In I_In net1 VP sky130_fd_pr__pfet_01v8 L=0.15 W=2 nf=1 ad='int((nf+1)/2) * W/nf * 0.29' as='int((nf+2)/2) * W/nf * 0.29'
+ pd='2*int((nf+1)/2) * (W/nf + 0.29)' ps='2*int((nf+2)/2) * (W/nf + 0.29)' nrd='0.29 / W' nrs='0.29 / W'
+ sa=0 sb=0 sd=0 mult=4*4 m=4*4
XM3 net2 I_In VP VP sky130_fd_pr__pfet_01v8 L=0.5 W=2 nf=1 ad='int((nf+1)/2) * W/nf * 0.29' as='int((nf+2)/2) * W/nf * 0.29'
+ pd='2*int((nf+1)/2) * (W/nf + 0.29)' ps='2*int((nf+2)/2) * (W/nf + 0.29)' nrd='0.29 / W' nrs='0.29 / W'
+ sa=0 sb=0 sd=0 mult=4 m=4
XM4 I_out_0 I_In net2 VP sky130_fd_pr__pfet_01v8 L=0.15 W=2 nf=1 ad='int((nf+1)/2) * W/nf * 0.29' as='int((nf+2)/2) * W/nf * 0.29'
+ pd='2*int((nf+1)/2) * (W/nf + 0.29)' ps='2*int((nf+2)/2) * (W/nf + 0.29)' nrd='0.29 / W' nrs='0.29 / W'
+ sa=0 sb=0 sd=0 mult=4*4 m=4*4
XM5 net3 I_In VP VP sky130_fd_pr__pfet_01v8 L=0.5 W=2 nf=1 ad='int((nf+1)/2) * W/nf * 0.29' as='int((nf+2)/2) * W/nf * 0.29'
+ pd='2*int((nf+1)/2) * (W/nf + 0.29)' ps='2*int((nf+2)/2) * (W/nf + 0.29)' nrd='0.29 / W' nrs='0.29 / W'
+ sa=0 sb=0 sd=0 mult=4 m=4
XM6 I_out_1 I_In net3 VP sky130_fd_pr__pfet_01v8 L=0.15 W=2 nf=1 ad='int((nf+1)/2) * W/nf * 0.29' as='int((nf+2)/2) * W/nf * 0.29'
+ pd='2*int((nf+1)/2) * (W/nf + 0.29)' ps='2*int((nf+2)/2) * (W/nf + 0.29)' nrd='0.29 / W' nrs='0.29 / W'
+ sa=0 sb=0 sd=0 mult=4*4 m=4*4
XM7 net4 I_In VP VP sky130_fd_pr__pfet_01v8 L=0.5 W=2 nf=1 ad='int((nf+1)/2) * W/nf * 0.29' as='int((nf+2)/2) * W/nf * 0.29'
+ pd='2*int((nf+1)/2) * (W/nf + 0.29)' ps='2*int((nf+2)/2) * (W/nf + 0.29)' nrd='0.29 / W' nrs='0.29 / W'
+ sa=0 sb=0 sd=0 mult=4 m=4
XM8 I_out_2 I_In net4 VP sky130_fd_pr__pfet_01v8 L=0.15 W=2 nf=1 ad='int((nf+1)/2) * W/nf * 0.29' as='int((nf+2)/2) * W/nf * 0.29'
+ pd='2*int((nf+1)/2) * (W/nf + 0.29)' ps='2*int((nf+2)/2) * (W/nf + 0.29)' nrd='0.29 / W' nrs='0.29 / W'
+ sa=0 sb=0 sd=0 mult=4*4 m=4*4
XM9 net5 I_In VP VP sky130_fd_pr__pfet_01v8 L=0.5 W=2 nf=1 ad='int((nf+1)/2) * W/nf * 0.29' as='int((nf+2)/2) * W/nf * 0.29'
+ pd='2*int((nf+1)/2) * (W/nf + 0.29)' ps='2*int((nf+2)/2) * (W/nf + 0.29)' nrd='0.29 / W' nrs='0.29 / W'
+ sa=0 sb=0 sd=0 mult=4 m=4
XM10 I_out_3 I_In net5 VP sky130_fd_pr__pfet_01v8 L=0.15 W=2 nf=1 ad='int((nf+1)/2) * W/nf * 0.29' as='int((nf+2)/2) * W/nf * 0.29'
+ pd='2*int((nf+1)/2) * (W/nf + 0.29)' ps='2*int((nf+2)/2) * (W/nf + 0.29)' nrd='0.29 / W' nrs='0.29 / W'
+ sa=0 sb=0 sd=0 mult=4*4 m=4*4
XM11 net6 I_In VP VP sky130_fd_pr__pfet_01v8 L=0.5 W=2 nf=1 ad='int((nf+1)/2) * W/nf * 0.29' as='int((nf+2)/2) * W/nf * 0.29'
+ pd='2*int((nf+1)/2) * (W/nf + 0.29)' ps='2*int((nf+2)/2) * (W/nf + 0.29)' nrd='0.29 / W' nrs='0.29 / W'
+ sa=0 sb=0 sd=0 mult=4 m=4
XM12 I_out_4 I_In net6 VP sky130_fd_pr__pfet_01v8 L=0.15 W=2 nf=1 ad='int((nf+1)/2) * W/nf * 0.29' as='int((nf+2)/2) * W/nf * 0.29'
+ pd='2*int((nf+1)/2) * (W/nf + 0.29)' ps='2*int((nf+2)/2) * (W/nf + 0.29)' nrd='0.29 / W' nrs='0.29 / W'
+ sa=0 sb=0 sd=0 mult=4*4 m=4*4
XM13 net7 I_In VP VP sky130_fd_pr__pfet_01v8 L=0.5 W=2 nf=1 ad='int((nf+1)/2) * W/nf * 0.29' as='int((nf+2)/2) * W/nf * 0.29'
+ pd='2*int((nf+1)/2) * (W/nf + 0.29)' ps='2*int((nf+2)/2) * (W/nf + 0.29)' nrd='0.29 / W' nrs='0.29 / W'
+ sa=0 sb=0 sd=0 mult=4 m=4
XM14 I_out_5 I_In net7 VP sky130_fd_pr__pfet_01v8 L=0.15 W=2 nf=1 ad='int((nf+1)/2) * W/nf * 0.29' as='int((nf+2)/2) * W/nf * 0.29'
+ pd='2*int((nf+1)/2) * (W/nf + 0.29)' ps='2*int((nf+2)/2) * (W/nf + 0.29)' nrd='0.29 / W' nrs='0.29 / W'
+ sa=0 sb=0 sd=0 mult=4*4 m=4*4
XM15 net8 I_In VP VP sky130_fd_pr__pfet_01v8 L=0.5 W=2 nf=1 ad='int((nf+1)/2) * W/nf * 0.29' as='int((nf+2)/2) * W/nf * 0.29'
+ pd='2*int((nf+1)/2) * (W/nf + 0.29)' ps='2*int((nf+2)/2) * (W/nf + 0.29)' nrd='0.29 / W' nrs='0.29 / W'
+ sa=0 sb=0 sd=0 mult=4 m=4
XM16 I_out_6 I_In net8 VP sky130_fd_pr__pfet_01v8 L=0.15 W=2 nf=1 ad='int((nf+1)/2) * W/nf * 0.29' as='int((nf+2)/2) * W/nf * 0.29'
+ pd='2*int((nf+1)/2) * (W/nf + 0.29)' ps='2*int((nf+2)/2) * (W/nf + 0.29)' nrd='0.29 / W' nrs='0.29 / W'
+ sa=0 sb=0 sd=0 mult=4*4 m=4*4
XM17 net9 I_In VP VP sky130_fd_pr__pfet_01v8 L=0.5 W=2 nf=1 ad='int((nf+1)/2) * W/nf * 0.29' as='int((nf+2)/2) * W/nf * 0.29'
+ pd='2*int((nf+1)/2) * (W/nf + 0.29)' ps='2*int((nf+2)/2) * (W/nf + 0.29)' nrd='0.29 / W' nrs='0.29 / W'
+ sa=0 sb=0 sd=0 mult=4 m=4
XM18 I_out_7 I_In net9 VP sky130_fd_pr__pfet_01v8 L=0.15 W=2 nf=1 ad='int((nf+1)/2) * W/nf * 0.29' as='int((nf+2)/2) * W/nf * 0.29'
+ pd='2*int((nf+1)/2) * (W/nf + 0.29)' ps='2*int((nf+2)/2) * (W/nf + 0.29)' nrd='0.29 / W' nrs='0.29 / W'
+ sa=0 sb=0 sd=0 mult=4*4 m=4*4
.ends


* expanding   symbol:  bias/low_pvt_source.sym # of pins=3
** sym_path: /home/simon/code/particle_detector/xschem/bias/low_pvt_source.sym
** sch_path: /home/simon/code/particle_detector/xschem/bias/low_pvt_source.sch
.subckt low_pvt_source  VP I_ref VN
*.iopin VP
*.opin I_ref
*.iopin VN
XM1 VM1D VM8D VP VP sky130_fd_pr__pfet_01v8 L=1 W=4 nf=1 ad='int((nf+1)/2) * W/nf * 0.29' as='int((nf+2)/2) * W/nf * 0.29'
+ pd='2*int((nf+1)/2) * (W/nf + 0.29)' ps='2*int((nf+2)/2) * (W/nf + 0.29)' nrd='0.29 / W' nrs='0.29 / W'
+ sa=0 sb=0 sd=0 mult=10 m=10
XM2 VM2D VM2D VN VN sky130_fd_pr__nfet_01v8 L=6 W=4 nf=1 ad='int((nf+1)/2) * W/nf * 0.29' as='int((nf+2)/2) * W/nf * 0.29'
+ pd='2*int((nf+1)/2) * (W/nf + 0.29)' ps='2*int((nf+2)/2) * (W/nf + 0.29)' nrd='0.29 / W' nrs='0.29 / W'
+ sa=0 sb=0 sd=0 mult=30 m=30
XM5 VM9D VM8D VM1D VP sky130_fd_pr__pfet_01v8 L=0.2 W=4 nf=1 ad='int((nf+1)/2) * W/nf * 0.29' as='int((nf+2)/2) * W/nf * 0.29'
+ pd='2*int((nf+1)/2) * (W/nf + 0.29)' ps='2*int((nf+2)/2) * (W/nf + 0.29)' nrd='0.29 / W' nrs='0.29 / W'
+ sa=0 sb=0 sd=0 mult=2 m=2
XM11 VM11D VM2D VM12D VN sky130_fd_pr__nfet_01v8 L=6 W=4 nf=1 ad='int((nf+1)/2) * W/nf * 0.29' as='int((nf+2)/2) * W/nf * 0.29'
+ pd='2*int((nf+1)/2) * (W/nf + 0.29)' ps='2*int((nf+2)/2) * (W/nf + 0.29)' nrd='0.29 / W' nrs='0.29 / W'
+ sa=0 sb=0 sd=0 mult=65 m=65
XM12 VM12D VM12G VN VN sky130_fd_pr__nfet_01v8 L=6 W=4 nf=1 ad='int((nf+1)/2) * W/nf * 0.29' as='int((nf+2)/2) * W/nf * 0.29'
+ pd='2*int((nf+1)/2) * (W/nf + 0.29)' ps='2*int((nf+2)/2) * (W/nf + 0.29)' nrd='0.29 / W' nrs='0.29 / W'
+ sa=0 sb=0 sd=0 mult=2 m=2
XM14 VM14D VM12G VN VN sky130_fd_pr__nfet_01v8 L=6 W=4 nf=1 ad='int((nf+1)/2) * W/nf * 0.29' as='int((nf+2)/2) * W/nf * 0.29'
+ pd='2*int((nf+1)/2) * (W/nf + 0.29)' ps='2*int((nf+2)/2) * (W/nf + 0.29)' nrd='0.29 / W' nrs='0.29 / W'
+ sa=0 sb=0 sd=0 mult=2 m=2
XM16 VM16D VM8D VP VP sky130_fd_pr__pfet_01v8 L=1 W=4 nf=1 ad='int((nf+1)/2) * W/nf * 0.29' as='int((nf+2)/2) * W/nf * 0.29'
+ pd='2*int((nf+1)/2) * (W/nf + 0.29)' ps='2*int((nf+2)/2) * (W/nf + 0.29)' nrd='0.29 / W' nrs='0.29 / W'
+ sa=0 sb=0 sd=0 mult=10 m=10
XM17 VM8D VM8D VM16D VP sky130_fd_pr__pfet_01v8 L=0.2 W=4 nf=1 ad='int((nf+1)/2) * W/nf * 0.29' as='int((nf+2)/2) * W/nf * 0.29'
+ pd='2*int((nf+1)/2) * (W/nf + 0.29)' ps='2*int((nf+2)/2) * (W/nf + 0.29)' nrd='0.29 / W' nrs='0.29 / W'
+ sa=0 sb=0 sd=0 mult=2 m=2
XM18 VM18D VM8D VP VP sky130_fd_pr__pfet_01v8 L=1 W=4 nf=1 ad='int((nf+1)/2) * W/nf * 0.29' as='int((nf+2)/2) * W/nf * 0.29'
+ pd='2*int((nf+1)/2) * (W/nf + 0.29)' ps='2*int((nf+2)/2) * (W/nf + 0.29)' nrd='0.29 / W' nrs='0.29 / W'
+ sa=0 sb=0 sd=0 mult=10*3*2 m=10*3*2
XM19 VM14D VM8D VM18D VP sky130_fd_pr__pfet_01v8 L=0.2 W=4 nf=1 ad='int((nf+1)/2) * W/nf * 0.29' as='int((nf+2)/2) * W/nf * 0.29'
+ pd='2*int((nf+1)/2) * (W/nf + 0.29)' ps='2*int((nf+2)/2) * (W/nf + 0.29)' nrd='0.29 / W' nrs='0.29 / W'
+ sa=0 sb=0 sd=0 mult=2*3*2 m=2*3*2
XM20 VM20D VM8D VP VP sky130_fd_pr__pfet_01v8 L=1 W=4 nf=1 ad='int((nf+1)/2) * W/nf * 0.29' as='int((nf+2)/2) * W/nf * 0.29'
+ pd='2*int((nf+1)/2) * (W/nf + 0.29)' ps='2*int((nf+2)/2) * (W/nf + 0.29)' nrd='0.29 / W' nrs='0.29 / W'
+ sa=0 sb=0 sd=0 mult=10*1*1 m=10*1*1
XM21 VM22D VM8D VM20D VP sky130_fd_pr__pfet_01v8 L=0.2 W=4 nf=1 ad='int((nf+1)/2) * W/nf * 0.29' as='int((nf+2)/2) * W/nf * 0.29'
+ pd='2*int((nf+1)/2) * (W/nf + 0.29)' ps='2*int((nf+2)/2) * (W/nf + 0.29)' nrd='0.29 / W' nrs='0.29 / W'
+ sa=0 sb=0 sd=0 mult=2*1*1 m=2*1*1
XM22 VM22D VM4S VM3D VN sky130_fd_pr__nfet_01v8 L=6 W=4 nf=1 ad='int((nf+1)/2) * W/nf * 0.29' as='int((nf+2)/2) * W/nf * 0.29'
+ pd='2*int((nf+1)/2) * (W/nf + 0.29)' ps='2*int((nf+2)/2) * (W/nf + 0.29)' nrd='0.29 / W' nrs='0.29 / W'
+ sa=0 sb=0 sd=0 mult=20 m=20
XM3 VM3D VM3G VN VN sky130_fd_pr__nfet_01v8 L=6 W=4 nf=1 ad='int((nf+1)/2) * W/nf * 0.29' as='int((nf+2)/2) * W/nf * 0.29'
+ pd='2*int((nf+1)/2) * (W/nf + 0.29)' ps='2*int((nf+2)/2) * (W/nf + 0.29)' nrd='0.29 / W' nrs='0.29 / W'
+ sa=0 sb=0 sd=0 mult=4 m=4
XM13 VP VM14D VM12G VM12G sky130_fd_pr__nfet_01v8_lvt L=0.15 W=4 nf=1 ad='int((nf+1)/2) * W/nf * 0.29'
+ as='int((nf+2)/2) * W/nf * 0.29' pd='2*int((nf+1)/2) * (W/nf + 0.29)' ps='2*int((nf+2)/2) * (W/nf + 0.29)'
+ nrd='0.29 / W' nrs='0.29 / W' sa=0 sb=0 sd=0 mult=20 m=20
XM4 I_ref VM22D VM4S VN sky130_fd_pr__nfet_01v8_lvt L=0.15 W=4 nf=1 ad='int((nf+1)/2) * W/nf * 0.29'
+ as='int((nf+2)/2) * W/nf * 0.29' pd='2*int((nf+1)/2) * (W/nf + 0.29)' ps='2*int((nf+2)/2) * (W/nf + 0.29)'
+ nrd='0.29 / W' nrs='0.29 / W' sa=0 sb=0 sd=0 mult=20 m=20
XM48 VM50D VM11D VP VP sky130_fd_pr__pfet_01v8 L=2 W=0.5 nf=1 ad='int((nf+1)/2) * W/nf * 0.29' as='int((nf+2)/2) * W/nf * 0.29'
+ pd='2*int((nf+1)/2) * (W/nf + 0.29)' ps='2*int((nf+2)/2) * (W/nf + 0.29)' nrd='0.29 / W' nrs='0.29 / W'
+ sa=0 sb=0 sd=0 mult=1 m=1
XM50 VM50D VM11D VN VN sky130_fd_pr__nfet_01v8_lvt L=0.2 W=4 nf=1 ad='int((nf+1)/2) * W/nf * 0.29' as='int((nf+2)/2) * W/nf * 0.29'
+ pd='2*int((nf+1)/2) * (W/nf + 0.29)' ps='2*int((nf+2)/2) * (W/nf + 0.29)' nrd='0.29 / W' nrs='0.29 / W'
+ sa=0 sb=0 sd=0 mult=10 m=10
XC3 VP VM8D sky130_fd_pr__cap_mim_m3_1 W=20 L=20 MF=1 m=1
XM8 VM8D VM9D VM11D VM11D sky130_fd_pr__nfet_01v8_lvt L=1 W=4 nf=1 ad='int((nf+1)/2) * W/nf * 0.29' as='int((nf+2)/2) * W/nf * 0.29'
+ pd='2*int((nf+1)/2) * (W/nf + 0.29)' ps='2*int((nf+2)/2) * (W/nf + 0.29)' nrd='0.29 / W' nrs='0.29 / W'
+ sa=0 sb=0 sd=0 mult=20 m=20
XM9 VM9D VM9D VM2D VM2D sky130_fd_pr__nfet_01v8_lvt L=1 W=4 nf=1 ad='int((nf+1)/2) * W/nf * 0.29' as='int((nf+2)/2) * W/nf * 0.29'
+ pd='2*int((nf+1)/2) * (W/nf + 0.29)' ps='2*int((nf+2)/2) * (W/nf + 0.29)' nrd='0.29 / W' nrs='0.29 / W'
+ sa=0 sb=0 sd=0 mult=20 m=20
XM10 VM8D VM50D VN VN sky130_fd_pr__nfet_01v8 L=2 W=0.5 nf=1 ad='int((nf+1)/2) * W/nf * 0.29' as='int((nf+2)/2) * W/nf * 0.29'
+ pd='2*int((nf+1)/2) * (W/nf + 0.29)' ps='2*int((nf+2)/2) * (W/nf + 0.29)' nrd='0.29 / W' nrs='0.29 / W'
+ sa=0 sb=0 sd=0 mult=1 m=1
XC4 VN VP sky130_fd_pr__cap_mim_m3_2 W=30 L=30 VM=1 m=1
XR7 net3 VM4S VN sky130_fd_pr__res_xhigh_po_1p41 L=10 mult=1 m=1
XR3 net4 net3 VN sky130_fd_pr__res_xhigh_po_1p41 L=10 mult=1 m=1
XR4 net2 net4 VN sky130_fd_pr__res_xhigh_po_1p41 L=10 mult=1 m=1
XR5 net1 net2 VN sky130_fd_pr__res_xhigh_po_1p41 L=10 mult=1 m=1
XR6 VN net1 VN sky130_fd_pr__res_xhigh_po_1p41 L=10 mult=1 m=1
XR8 net5 VM12G VN sky130_fd_pr__res_xhigh_po_1p41 L=10 mult=1 m=1
XR1 net5 VM3G VN sky130_fd_pr__res_xhigh_po_1p41 L=10 mult=1 m=1
XR2 net7 net6 VN sky130_fd_pr__res_xhigh_po_1p41 L=10 mult=1 m=1
XR9 VN net6 VN sky130_fd_pr__res_xhigh_po_1p41 L=10 mult=1 m=1
XR10 net11 net7 VN sky130_fd_pr__res_xhigh_po_1p41 L=10 mult=1 m=1
XR11 net12 net11 VN sky130_fd_pr__res_xhigh_po_1p41 L=10 mult=1 m=1
XR12 net8 net12 VN sky130_fd_pr__res_xhigh_po_1p41 L=10 mult=1 m=1
XR13 net10 VM3G VN sky130_fd_pr__res_xhigh_po_1p41 L=10 mult=1 m=1
XR14 net9 net10 VN sky130_fd_pr__res_xhigh_po_1p41 L=10 mult=1 m=1
XR15 net8 net9 VN sky130_fd_pr__res_xhigh_po_1p41 L=10 mult=1 m=1
XC1 VN VP sky130_fd_pr__cap_mim_m3_2 W=30 L=30 VM=1 m=1
.ends


* expanding   symbol:  bias/current_mirror_channel.sym # of pins=14
** sym_path: /home/simon/code/particle_detector/xschem/bias/current_mirror_channel.sym
** sch_path: /home/simon/code/particle_detector/xschem/bias/current_mirror_channel.sch
.subckt current_mirror_channel  VP LVDS_Bias Comp_Bias_2 A_Out_I_Bias Comp_Bias_1 Comp_To_Logic_Bias
+ TIA_I_Bias1 Comp_Bias_3 Comp_Bias_4 Comp_Bias_5 Comp_Bias_6 FB_Bias_1 I_in_channel VN
*.ipin I_in_channel
*.iopin VP
*.iopin VN
*.opin TIA_I_Bias1
*.opin A_Out_I_Bias
*.opin Comp_Bias_1
*.opin Comp_To_Logic_Bias
*.opin Comp_Bias_2
*.opin Comp_Bias_3
*.opin Comp_Bias_4
*.opin Comp_Bias_5
*.opin Comp_Bias_6
*.opin FB_Bias_1
*.opin LVDS_Bias
XM1 I_in_channel I_in_channel net1 VN sky130_fd_pr__nfet_01v8 L=0.15 W=2 nf=1 ad='int((nf+1)/2) * W/nf * 0.29'
+ as='int((nf+2)/2) * W/nf * 0.29' pd='2*int((nf+1)/2) * (W/nf + 0.29)' ps='2*int((nf+2)/2) * (W/nf + 0.29)'
+ nrd='0.29 / W' nrs='0.29 / W' sa=0 sb=0 sd=0 mult=4*4 m=4*4
XM2 net3 vm4d VP VP sky130_fd_pr__pfet_01v8 L=0.5 W=2 nf=1 ad='int((nf+1)/2) * W/nf * 0.29' as='int((nf+2)/2) * W/nf * 0.29'
+ pd='2*int((nf+1)/2) * (W/nf + 0.29)' ps='2*int((nf+2)/2) * (W/nf + 0.29)' nrd='0.29 / W' nrs='0.29 / W'
+ sa=0 sb=0 sd=0 mult=4 m=4
XM3 net1 I_in_channel VN VN sky130_fd_pr__nfet_01v8 L=0.5 W=2 nf=1 ad='int((nf+1)/2) * W/nf * 0.29' as='int((nf+2)/2) * W/nf * 0.29'
+ pd='2*int((nf+1)/2) * (W/nf + 0.29)' ps='2*int((nf+2)/2) * (W/nf + 0.29)' nrd='0.29 / W' nrs='0.29 / W'
+ sa=0 sb=0 sd=0 mult=4 m=4
XM4 vm4d vm4d net3 VP sky130_fd_pr__pfet_01v8 L=0.15 W=2 nf=1 ad='int((nf+1)/2) * W/nf * 0.29' as='int((nf+2)/2) * W/nf * 0.29'
+ pd='2*int((nf+1)/2) * (W/nf + 0.29)' ps='2*int((nf+2)/2) * (W/nf + 0.29)' nrd='0.29 / W' nrs='0.29 / W'
+ sa=0 sb=0 sd=0 mult=4*4 m=4*4
XC4 VP vm4d sky130_fd_pr__cap_mim_m3_2 W=30 L=15 VM=1 m=1
XM5 vm4d I_in_channel net2 VN sky130_fd_pr__nfet_01v8 L=0.15 W=2 nf=1 ad='int((nf+1)/2) * W/nf * 0.29'
+ as='int((nf+2)/2) * W/nf * 0.29' pd='2*int((nf+1)/2) * (W/nf + 0.29)' ps='2*int((nf+2)/2) * (W/nf + 0.29)'
+ nrd='0.29 / W' nrs='0.29 / W' sa=0 sb=0 sd=0 mult=4*4 m=4*4
XM6 net2 I_in_channel VN VN sky130_fd_pr__nfet_01v8 L=0.5 W=2 nf=1 ad='int((nf+1)/2) * W/nf * 0.29' as='int((nf+2)/2) * W/nf * 0.29'
+ pd='2*int((nf+1)/2) * (W/nf + 0.29)' ps='2*int((nf+2)/2) * (W/nf + 0.29)' nrd='0.29 / W' nrs='0.29 / W'
+ sa=0 sb=0 sd=0 mult=4 m=4
XM13 net4 vm12d VP VP sky130_fd_pr__pfet_01v8 L=0.5 W=2 nf=1 ad='int((nf+1)/2) * W/nf * 0.29' as='int((nf+2)/2) * W/nf * 0.29'
+ pd='2*int((nf+1)/2) * (W/nf + 0.29)' ps='2*int((nf+2)/2) * (W/nf + 0.29)' nrd='0.29 / W' nrs='0.29 / W'
+ sa=0 sb=0 sd=0 mult=4*5 m=4*5
XM14 TIA_I_Bias1 vm12d net4 VP sky130_fd_pr__pfet_01v8 L=0.15 W=2 nf=1 ad='int((nf+1)/2) * W/nf * 0.29'
+ as='int((nf+2)/2) * W/nf * 0.29' pd='2*int((nf+1)/2) * (W/nf + 0.29)' ps='2*int((nf+2)/2) * (W/nf + 0.29)'
+ nrd='0.29 / W' nrs='0.29 / W' sa=0 sb=0 sd=0 mult=4*4*5 m=4*4*5
XM9 net5 vm12d VP VP sky130_fd_pr__pfet_01v8 L=0.5 W=2 nf=1 ad='int((nf+1)/2) * W/nf * 0.29' as='int((nf+2)/2) * W/nf * 0.29'
+ pd='2*int((nf+1)/2) * (W/nf + 0.29)' ps='2*int((nf+2)/2) * (W/nf + 0.29)' nrd='0.29 / W' nrs='0.29 / W'
+ sa=0 sb=0 sd=0 mult=4*6 m=4*6
XM10 A_Out_I_Bias vm12d net5 VP sky130_fd_pr__pfet_01v8 L=0.15 W=2 nf=1 ad='int((nf+1)/2) * W/nf * 0.29'
+ as='int((nf+2)/2) * W/nf * 0.29' pd='2*int((nf+1)/2) * (W/nf + 0.29)' ps='2*int((nf+2)/2) * (W/nf + 0.29)'
+ nrd='0.29 / W' nrs='0.29 / W' sa=0 sb=0 sd=0 mult=4*4*6 m=4*4*6
XM15 net6 vm12d VP VP sky130_fd_pr__pfet_01v8 L=0.5 W=2 nf=1 ad='int((nf+1)/2) * W/nf * 0.29' as='int((nf+2)/2) * W/nf * 0.29'
+ pd='2*int((nf+1)/2) * (W/nf + 0.29)' ps='2*int((nf+2)/2) * (W/nf + 0.29)' nrd='0.29 / W' nrs='0.29 / W'
+ sa=0 sb=0 sd=0 mult=4*4 m=4*4
XM16 Comp_To_Logic_Bias vm12d net6 VP sky130_fd_pr__pfet_01v8 L=0.15 W=2 nf=1 ad='int((nf+1)/2) * W/nf * 0.29'
+ as='int((nf+2)/2) * W/nf * 0.29' pd='2*int((nf+1)/2) * (W/nf + 0.29)' ps='2*int((nf+2)/2) * (W/nf + 0.29)'
+ nrd='0.29 / W' nrs='0.29 / W' sa=0 sb=0 sd=0 mult=4*4*4 m=4*4*4
XM17 net7 vm12d VP VP sky130_fd_pr__pfet_01v8 L=0.5 W=2 nf=1 ad='int((nf+1)/2) * W/nf * 0.29' as='int((nf+2)/2) * W/nf * 0.29'
+ pd='2*int((nf+1)/2) * (W/nf + 0.29)' ps='2*int((nf+2)/2) * (W/nf + 0.29)' nrd='0.29 / W' nrs='0.29 / W'
+ sa=0 sb=0 sd=0 mult=4*8 m=4*8
XM18 Comp_Bias_1 vm12d net7 VP sky130_fd_pr__pfet_01v8 L=0.15 W=2 nf=1 ad='int((nf+1)/2) * W/nf * 0.29'
+ as='int((nf+2)/2) * W/nf * 0.29' pd='2*int((nf+1)/2) * (W/nf + 0.29)' ps='2*int((nf+2)/2) * (W/nf + 0.29)'
+ nrd='0.29 / W' nrs='0.29 / W' sa=0 sb=0 sd=0 mult=4*4*8 m=4*4*8
XM19 net8 vm12d VP VP sky130_fd_pr__pfet_01v8 L=0.5 W=2 nf=1 ad='int((nf+1)/2) * W/nf * 0.29' as='int((nf+2)/2) * W/nf * 0.29'
+ pd='2*int((nf+1)/2) * (W/nf + 0.29)' ps='2*int((nf+2)/2) * (W/nf + 0.29)' nrd='0.29 / W' nrs='0.29 / W'
+ sa=0 sb=0 sd=0 mult=4*8 m=4*8
XM20 Comp_Bias_2 vm12d net8 VP sky130_fd_pr__pfet_01v8 L=0.15 W=2 nf=1 ad='int((nf+1)/2) * W/nf * 0.29'
+ as='int((nf+2)/2) * W/nf * 0.29' pd='2*int((nf+1)/2) * (W/nf + 0.29)' ps='2*int((nf+2)/2) * (W/nf + 0.29)'
+ nrd='0.29 / W' nrs='0.29 / W' sa=0 sb=0 sd=0 mult=4*4*8 m=4*4*8
XM31 net13 vm4d VP VP sky130_fd_pr__pfet_01v8 L=0.5 W=2 nf=1 ad='int((nf+1)/2) * W/nf * 0.29' as='int((nf+2)/2) * W/nf * 0.29'
+ pd='2*int((nf+1)/2) * (W/nf + 0.29)' ps='2*int((nf+2)/2) * (W/nf + 0.29)' nrd='0.29 / W' nrs='0.29 / W'
+ sa=0 sb=0 sd=0 mult=4 m=4
XM32 FB_Bias_1 vm4d net13 VP sky130_fd_pr__pfet_01v8 L=0.15 W=2 nf=1 ad='int((nf+1)/2) * W/nf * 0.29'
+ as='int((nf+2)/2) * W/nf * 0.29' pd='2*int((nf+1)/2) * (W/nf + 0.29)' ps='2*int((nf+2)/2) * (W/nf + 0.29)'
+ nrd='0.29 / W' nrs='0.29 / W' sa=0 sb=0 sd=0 mult=4*4 m=4*4
XM7 vm12d I_in_channel net15 VN sky130_fd_pr__nfet_01v8 L=0.15 W=2 nf=1 ad='int((nf+1)/2) * W/nf * 0.29'
+ as='int((nf+2)/2) * W/nf * 0.29' pd='2*int((nf+1)/2) * (W/nf + 0.29)' ps='2*int((nf+2)/2) * (W/nf + 0.29)'
+ nrd='0.29 / W' nrs='0.29 / W' sa=0 sb=0 sd=0 mult=2*4*4 m=2*4*4
XM8 net15 I_in_channel VN VN sky130_fd_pr__nfet_01v8 L=0.5 W=2 nf=1 ad='int((nf+1)/2) * W/nf * 0.29'
+ as='int((nf+2)/2) * W/nf * 0.29' pd='2*int((nf+1)/2) * (W/nf + 0.29)' ps='2*int((nf+2)/2) * (W/nf + 0.29)'
+ nrd='0.29 / W' nrs='0.29 / W' sa=0 sb=0 sd=0 mult=2*4 m=2*4
XM11 net16 vm12d VP VP sky130_fd_pr__pfet_01v8 L=0.5 W=2 nf=1 ad='int((nf+1)/2) * W/nf * 0.29' as='int((nf+2)/2) * W/nf * 0.29'
+ pd='2*int((nf+1)/2) * (W/nf + 0.29)' ps='2*int((nf+2)/2) * (W/nf + 0.29)' nrd='0.29 / W' nrs='0.29 / W'
+ sa=0 sb=0 sd=0 mult=4 m=4
XM12 vm12d vm12d net16 VP sky130_fd_pr__pfet_01v8 L=0.15 W=2 nf=1 ad='int((nf+1)/2) * W/nf * 0.29' as='int((nf+2)/2) * W/nf * 0.29'
+ pd='2*int((nf+1)/2) * (W/nf + 0.29)' ps='2*int((nf+2)/2) * (W/nf + 0.29)' nrd='0.29 / W' nrs='0.29 / W'
+ sa=0 sb=0 sd=0 mult=4*4 m=4*4
XM21 net9 vm12d VP VP sky130_fd_pr__pfet_01v8 L=0.5 W=2 nf=1 ad='int((nf+1)/2) * W/nf * 0.29' as='int((nf+2)/2) * W/nf * 0.29'
+ pd='2*int((nf+1)/2) * (W/nf + 0.29)' ps='2*int((nf+2)/2) * (W/nf + 0.29)' nrd='0.29 / W' nrs='0.29 / W'
+ sa=0 sb=0 sd=0 mult=4*8 m=4*8
XM22 Comp_Bias_3 vm12d net9 VP sky130_fd_pr__pfet_01v8 L=0.15 W=2 nf=1 ad='int((nf+1)/2) * W/nf * 0.29'
+ as='int((nf+2)/2) * W/nf * 0.29' pd='2*int((nf+1)/2) * (W/nf + 0.29)' ps='2*int((nf+2)/2) * (W/nf + 0.29)'
+ nrd='0.29 / W' nrs='0.29 / W' sa=0 sb=0 sd=0 mult=4*4*8 m=4*4*8
XM23 net10 vm12d VP VP sky130_fd_pr__pfet_01v8 L=0.5 W=2 nf=1 ad='int((nf+1)/2) * W/nf * 0.29' as='int((nf+2)/2) * W/nf * 0.29'
+ pd='2*int((nf+1)/2) * (W/nf + 0.29)' ps='2*int((nf+2)/2) * (W/nf + 0.29)' nrd='0.29 / W' nrs='0.29 / W'
+ sa=0 sb=0 sd=0 mult=4*8 m=4*8
XM24 Comp_Bias_4 vm12d net10 VP sky130_fd_pr__pfet_01v8 L=0.15 W=2 nf=1 ad='int((nf+1)/2) * W/nf * 0.29'
+ as='int((nf+2)/2) * W/nf * 0.29' pd='2*int((nf+1)/2) * (W/nf + 0.29)' ps='2*int((nf+2)/2) * (W/nf + 0.29)'
+ nrd='0.29 / W' nrs='0.29 / W' sa=0 sb=0 sd=0 mult=4*4*8 m=4*4*8
XM25 net11 vm12d VP VP sky130_fd_pr__pfet_01v8 L=0.5 W=2 nf=1 ad='int((nf+1)/2) * W/nf * 0.29' as='int((nf+2)/2) * W/nf * 0.29'
+ pd='2*int((nf+1)/2) * (W/nf + 0.29)' ps='2*int((nf+2)/2) * (W/nf + 0.29)' nrd='0.29 / W' nrs='0.29 / W'
+ sa=0 sb=0 sd=0 mult=4*8 m=4*8
XM26 Comp_Bias_5 vm12d net11 VP sky130_fd_pr__pfet_01v8 L=0.15 W=2 nf=1 ad='int((nf+1)/2) * W/nf * 0.29'
+ as='int((nf+2)/2) * W/nf * 0.29' pd='2*int((nf+1)/2) * (W/nf + 0.29)' ps='2*int((nf+2)/2) * (W/nf + 0.29)'
+ nrd='0.29 / W' nrs='0.29 / W' sa=0 sb=0 sd=0 mult=4*4*8 m=4*4*8
XM27 net12 vm12d VP VP sky130_fd_pr__pfet_01v8 L=0.5 W=2 nf=1 ad='int((nf+1)/2) * W/nf * 0.29' as='int((nf+2)/2) * W/nf * 0.29'
+ pd='2*int((nf+1)/2) * (W/nf + 0.29)' ps='2*int((nf+2)/2) * (W/nf + 0.29)' nrd='0.29 / W' nrs='0.29 / W'
+ sa=0 sb=0 sd=0 mult=4*8 m=4*8
XM28 Comp_Bias_6 vm12d net12 VP sky130_fd_pr__pfet_01v8 L=0.15 W=2 nf=1 ad='int((nf+1)/2) * W/nf * 0.29'
+ as='int((nf+2)/2) * W/nf * 0.29' pd='2*int((nf+1)/2) * (W/nf + 0.29)' ps='2*int((nf+2)/2) * (W/nf + 0.29)'
+ nrd='0.29 / W' nrs='0.29 / W' sa=0 sb=0 sd=0 mult=4*4*8 m=4*4*8
XM29 net14 vm12d VP VP sky130_fd_pr__pfet_01v8 L=0.5 W=2 nf=1 ad='int((nf+1)/2) * W/nf * 0.29' as='int((nf+2)/2) * W/nf * 0.29'
+ pd='2*int((nf+1)/2) * (W/nf + 0.29)' ps='2*int((nf+2)/2) * (W/nf + 0.29)' nrd='0.29 / W' nrs='0.29 / W'
+ sa=0 sb=0 sd=0 mult=4*8 m=4*8
XM30 LVDS_Bias vm12d net14 VP sky130_fd_pr__pfet_01v8 L=0.15 W=2 nf=1 ad='int((nf+1)/2) * W/nf * 0.29'
+ as='int((nf+2)/2) * W/nf * 0.29' pd='2*int((nf+1)/2) * (W/nf + 0.29)' ps='2*int((nf+2)/2) * (W/nf + 0.29)'
+ nrd='0.29 / W' nrs='0.29 / W' sa=0 sb=0 sd=0 mult=4*4*8 m=4*4*8
XC1 VP vm12d sky130_fd_pr__cap_mim_m3_2 W=30 L=15 VM=1 m=1
XC2 VP VN sky130_fd_pr__cap_mim_m3_2 W=30 L=30 VM=1 m=1
.ends


* expanding   symbol:  tia/tia_rgc_core.sym # of pins=8
** sym_path: /home/simon/code/particle_detector/xschem/tia/tia_rgc_core.sym
** sch_path: /home/simon/code/particle_detector/xschem/tia/tia_rgc_core.sch
.subckt tia_rgc_core  VP Out_2 Out_ref Out_1 Disable_TIA Input I_Bias1 VN
*.iopin VN
*.iopin VP
*.opin Out_2
*.ipin I_Bias1
*.ipin Input
*.ipin Disable_TIA
*.opin Out_1
*.opin Out_ref
XM5 VM5D I_Bias1 VN VN sky130_fd_pr__nfet_01v8 L=1 W=2 nf=1 ad='int((nf+1)/2) * W/nf * 0.29' as='int((nf+2)/2) * W/nf * 0.29'
+ pd='2*int((nf+1)/2) * (W/nf + 0.29)' ps='2*int((nf+2)/2) * (W/nf + 0.29)' nrd='0.29 / W' nrs='0.29 / W'
+ sa=0 sb=0 sd=0 mult=6 m=6
XM6 VM6D I_Bias1 VN VN sky130_fd_pr__nfet_01v8 L=1.0 W=2 nf=1 ad='int((nf+1)/2) * W/nf * 0.29' as='int((nf+2)/2) * W/nf * 0.29'
+ pd='2*int((nf+1)/2) * (W/nf + 0.29)' ps='2*int((nf+2)/2) * (W/nf + 0.29)' nrd='0.29 / W' nrs='0.29 / W'
+ sa=0 sb=0 sd=0 mult=6 m=6
XM7 Out_1 Input VM28D VN sky130_fd_pr__nfet_01v8_lvt L=0.2 W=2 nf=1 ad='int((nf+1)/2) * W/nf * 0.29'
+ as='int((nf+2)/2) * W/nf * 0.29' pd='2*int((nf+1)/2) * (W/nf + 0.29)' ps='2*int((nf+2)/2) * (W/nf + 0.29)'
+ nrd='0.29 / W' nrs='0.29 / W' sa=0 sb=0 sd=0 mult=100 m=100
XM8 Out_1 Input VP VP sky130_fd_pr__pfet_01v8 L=0.2 W=2 nf=1 ad='int((nf+1)/2) * W/nf * 0.29' as='int((nf+2)/2) * W/nf * 0.29'
+ pd='2*int((nf+1)/2) * (W/nf + 0.29)' ps='2*int((nf+2)/2) * (W/nf + 0.29)' nrd='0.29 / W' nrs='0.29 / W'
+ sa=0 sb=0 sd=0 mult=60 m=60